@<TRIPOS>MOLECULE
1,3-dichlorobenzene
   12    12     1     0     0
SMALL
No Charge or Current Charge


@<TRIPOS>ATOM
      1 C1          1.8852   -1.0364   -0.1113 ca        1 MOL     -0.113000
      2 C2          2.9249   -1.6325    0.5981 ca        1 MOL     -0.125100
      3 C3          2.8665   -1.6448    1.9883 ca        1 MOL      0.024400
      4 C4          1.7997   -1.0786    2.6792 ca        1 MOL     -0.121000
      5 C5          0.7766   -0.4908    1.9417 ca        1 MOL      0.024400
      6 C6          0.8034   -0.4610    0.5508 ca        1 MOL     -0.125100
      7 Cl1        -0.5672    0.2232    2.7900 cl        1 MOL     -0.085000
      8 Cl2         4.1565   -2.3853    2.8953 cl        1 MOL     -0.085000
      9 H1          1.9184   -1.0200   -1.1964 ha        1 MOL      0.143800
     10 H2          3.7691   -2.0818    0.0865 ha        1 MOL      0.150100
     11 H3          1.7664   -1.0950    3.7630 ha        1 MOL      0.161600
     12 H4         -0.0083    0.0042    0.0022 ha        1 MOL      0.150100
@<TRIPOS>BOND
     1    1    6 ar  
     2    1    2 ar  
     3    2    3 ar  
     4    3    4 ar  
     5    4    5 ar  
     6    5    6 ar  
     7    5    7 1   
     8    3    8 1   
     9    1    9 1   
    10    2   10 1   
    11    4   11 1   
    12    6   12 1   
@<TRIPOS>SUBSTRUCTURE
     1 MOL         1 TEMP              0 ****  ****    0 ROOT
