@<TRIPOS>MOLECULE
methyl
    8     7     1     0     0
SMALL
No Charge or Current Charge


@<TRIPOS>ATOM
      1 C1          0.3377   -1.0253    0.0534 c3        1 MOL      0.123500
      2 O1          1.5735   -1.1901   -0.6499 os        1 MOL     -0.449900
      3 C2          1.5197   -0.9409   -1.9604 c         1 MOL      0.627600
      4 O2          0.5370   -0.5997   -2.5631 o         1 MOL     -0.538000
      5 H1          0.5544   -1.2688    1.0920 h1        1 MOL      0.051700
      6 H2         -0.4188   -1.6998   -0.3542 h1        1 MOL      0.051700
      7 H3         -0.0117    0.0055   -0.0392 h1        1 MOL      0.051700
      8 H4          2.5103   -1.0943   -2.4084 h5        1 MOL      0.081600
@<TRIPOS>BOND
     1    1    2 1   
     2    2    3 1   
     3    3    4 2   
     4    1    5 1   
     5    1    6 1   
     6    1    7 1   
     7    3    8 1   
@<TRIPOS>SUBSTRUCTURE
     1 MOL         1 TEMP              0 ****  ****    0 ROOT
