@<TRIPOS>MOLECULE
N-methylacetamide
   12    11     1     0     0
SMALL
No Charge or Current Charge


@<TRIPOS>ATOM
      1 C1          0.9571   -0.1908    0.4785 c3        1 MOL     -0.176700
      2 C2          0.7782   -0.8799    1.8157 c         1 MOL      0.659700
      3 O1          0.2183   -1.9610    1.9189 o         1 MOL     -0.603700
      4 N1          1.2758   -0.2294    2.9020 n         1 MOL     -0.583800
      5 C3          1.1523   -0.8109    4.2254 c3        1 MOL      0.084100
      6 H1         -0.0285   -0.0332    0.0335 hc        1 MOL      0.064100
      7 H2          1.4767    0.7685    0.5484 hc        1 MOL      0.064100
      8 H3          1.5181   -0.8552   -0.1833 hc        1 MOL      0.064100
      9 H4          1.7334    0.6615    2.7872 hn        1 MOL      0.304900
     10 H5          1.6522   -1.7831    4.2640 h1        1 MOL      0.041000
     11 H6          0.0991   -0.9601    4.4805 h1        1 MOL      0.041000
     12 H7          1.6103   -0.1373    4.9509 h1        1 MOL      0.041000
@<TRIPOS>BOND
     1    1    2 1   
     2    2    3 2   
     3    2    4 1   
     4    4    5 1   
     5    1    6 1   
     6    1    7 1   
     7    1    8 1   
     8    4    9 1   
     9    5   10 1   
    10    5   11 1   
    11    5   12 1   
@<TRIPOS>SUBSTRUCTURE
     1 MOL         1 TEMP              0 ****  ****    0 ROOT
