@<TRIPOS>MOLECULE
1,2,3,5-tetrachlorobenzene
   12    12     1     0     0
SMALL
No Charge or Current Charge


@<TRIPOS>ATOM
      1 C1          1.8908   -1.0393   -0.1188 ca        1 MOL     -0.116300
      2 C2          2.9143   -1.6273    0.6123 ca        1 MOL      0.029900
      3 C3          2.8860   -1.6564    2.0001 ca        1 MOL     -0.116300
      4 C4          1.8070   -1.0826    2.6649 ca        1 MOL      0.030500
      5 C5          0.7572   -0.4809    1.9592 ca        1 MOL      0.014300
      6 C6          0.8184   -0.4696    0.5598 ca        1 MOL      0.030500
      7 Cl1        -0.4459    0.2578   -0.3718 cl        1 MOL     -0.052500
      8 Cl2        -0.5750    0.2273    2.7911 cl        1 MOL     -0.037300
      9 Cl3         1.7928   -1.1304    4.3949 cl        1 MOL     -0.052500
     10 Cl4         4.2576   -2.3412   -0.2266 cl        1 MOL     -0.066900
     11 H1          1.9197   -1.0203   -1.2023 ha        1 MOL      0.168400
     12 H2          3.6887   -2.1173    2.5643 ha        1 MOL      0.168400
@<TRIPOS>BOND
     1    1    6 ar  
     2    1    2 ar  
     3    2    3 ar  
     4    3    4 ar  
     5    4    5 ar  
     6    5    6 ar  
     7    6    7 1   
     8    5    8 1   
     9    4    9 1   
    10    2   10 1   
    11    1   11 1   
    12    3   12 1   
@<TRIPOS>SUBSTRUCTURE
     1 MOL         1 TEMP              0 ****  ****    0 ROOT
