@<TRIPOS>MOLECULE
hydrogen
    3     2     1     0     0
SMALL
No Charge or Current Charge


@<TRIPOS>ATOM
      1 S1         -0.4597   -0.3319    0.2415 sh        1 MOL     -0.440500
      2 H1          0.0300    0.8906    0.4947 hs        1 MOL      0.220300
      3 H2          0.4297   -0.5587   -0.7362 hs        1 MOL      0.220300
@<TRIPOS>BOND
     1    1    2 1   
     2    1    3 1   
@<TRIPOS>SUBSTRUCTURE
     1 MOL         1 TEMP              0 ****  ****    0 ROOT
