@<TRIPOS>MOLECULE
1,1,2,2,3,3,4,4-octafluorocyclobutane
   12    12     1     0     0
SMALL
No Charge or Current Charge


@<TRIPOS>ATOM
      1 C1          0.8015   -0.7523   -0.0119 cy        1 MOL      0.345200
      2 C2         -0.2425   -0.2620    1.0397 cy        1 MOL      0.345200
      3 C3         -0.6585    0.8783    0.0584 cy        1 MOL      0.345200
      4 C4          0.0996    0.1360   -1.0863 cy        1 MOL      0.345200
      5 F1          0.8956    0.8821   -1.8466 f         1 MOL     -0.172600
      6 F2         -0.7389   -0.5826   -1.8430 f         1 MOL     -0.172600
      7 F3         -0.0614    2.0349    0.3707 f         1 MOL     -0.172600
      8 F4         -1.9644    1.0570   -0.1178 f         1 MOL     -0.172600
      9 F5         -1.2292   -1.1520    1.2017 f         1 MOL     -0.172600
     10 F6          0.2423    0.1208    2.2174 f         1 MOL     -0.172600
     11 F7          0.8266   -2.0599   -0.2530 f         1 MOL     -0.172600
     12 F8          2.0295   -0.3004    0.2706 f         1 MOL     -0.172600
@<TRIPOS>BOND
     1    1    4 1   
     2    1    2 1   
     3    2    3 1   
     4    3    4 1   
     5    4    5 1   
     6    4    6 1   
     7    3    7 1   
     8    3    8 1   
     9    2    9 1   
    10    2   10 1   
    11    1   11 1   
    12    1   12 1   
@<TRIPOS>SUBSTRUCTURE
     1 MOL         1 TEMP              0 ****  ****    0 ROOT
