@<TRIPOS>MOLECULE
1,1,1,2-tetrachloroethane
    8     7     1     0     0
SMALL
No Charge or Current Charge


@<TRIPOS>ATOM
      1 C1         -0.2238   -0.3186    0.7153 c3        1 MOL      0.008000
      2 C2          0.1531    0.1903   -0.6788 c3        1 MOL      0.242100
      3 Cl1         1.9134    0.3658   -0.8326 cl        1 MOL     -0.104300
      4 Cl2        -0.4236   -1.0432   -1.8361 cl        1 MOL     -0.104300
      5 Cl3        -0.6447    1.7389   -1.0222 cl        1 MOL     -0.104300
      6 Cl4         0.2681    0.7813    2.0192 cl        1 MOL     -0.134900
      7 H1          0.2663   -1.2795    0.8763 h1        1 MOL      0.098800
      8 H2         -1.3073   -0.4359    0.7588 h1        1 MOL      0.098800
@<TRIPOS>BOND
     1    1    2 1   
     2    2    3 1   
     3    2    4 1   
     4    2    5 1   
     5    1    6 1   
     6    1    7 1   
     7    1    8 1   
@<TRIPOS>SUBSTRUCTURE
     1 MOL         1 TEMP              0 ****  ****    0 ROOT
