@<TRIPOS>MOLECULE
1,1,1,2,2,2-hexachloroethane
    8     7     1     0     0
SMALL
No Charge or Current Charge


@<TRIPOS>ATOM
      1 C1          0.2103   -0.3710   -0.6686 c3        1 MOL      0.221900
      2 C2         -0.2100    0.3711    0.6687 c3        1 MOL      0.221900
      3 Cl1        -1.1976    1.7927    0.2794 cl        1 MOL     -0.074000
      4 Cl2        -1.1493   -0.7317    1.6938 cl        1 MOL     -0.074000
      5 Cl3         1.2435    0.8903    1.5449 cl        1 MOL     -0.074000
      6 Cl4         1.1490    0.7319   -1.6941 cl        1 MOL     -0.074000
      7 Cl5        -1.2435   -0.8907   -1.5444 cl        1 MOL     -0.074000
      8 Cl6         1.1983   -1.7924   -0.2796 cl        1 MOL     -0.074000
@<TRIPOS>BOND
     1    1    2 1   
     2    2    3 1   
     3    2    4 1   
     4    2    5 1   
     5    1    6 1   
     6    1    7 1   
     7    1    8 1   
@<TRIPOS>SUBSTRUCTURE
     1 MOL         1 TEMP              0 ****  ****    0 ROOT
