@<TRIPOS>MOLECULE
acetaldehyde
    7     6     1     0     0
SMALL
No Charge or Current Charge


@<TRIPOS>ATOM
      1 C1         -0.5786   -0.9282   -0.0270 c3        1 MOL     -0.221100
      2 C2         -1.5047   -0.9718    1.1569 c         1 MOL      0.563200
      3 O1         -1.3099   -1.6322    2.1482 o         1 MOL     -0.526800
      4 H1         -1.1166   -1.2474   -0.9270 hc        1 MOL      0.064700
      5 H2         -0.2489    0.1030   -0.1984 hc        1 MOL      0.064700
      6 H3          0.2849   -1.5739    0.1414 hc        1 MOL      0.064700
      7 H4         -2.4168   -0.3443    1.0813 h4        1 MOL     -0.009400
@<TRIPOS>BOND
     1    1    2 1   
     2    2    3 2   
     3    1    4 1   
     4    1    5 1   
     5    1    6 1   
     6    2    7 1   
@<TRIPOS>SUBSTRUCTURE
     1 MOL         1 TEMP              0 ****  ****    0 ROOT
