@<TRIPOS>MOLECULE
2-methylpropan-2-ol
   15    14     1     0     0
SMALL
No Charge or Current Charge


@<TRIPOS>ATOM
      1 C1         -0.4604   -0.0712    0.9762 c3        1 MOL     -0.108800
      2 C2          0.5640   -0.4054    2.0606 c3        1 MOL      0.145500
      3 C3          1.6179    0.6897    2.1653 c3        1 MOL     -0.108800
      4 C4          1.2155   -1.7619    1.7916 c3        1 MOL     -0.108800
      5 O1         -0.0769   -0.4243    3.3388 oh        1 MOL     -0.599400
      6 H1         -1.2347   -0.8469    0.9214 hc        1 MOL      0.042700
      7 H2         -0.9453    0.8843    1.1987 hc        1 MOL      0.042700
      8 H3          0.0153   -0.0035   -0.0082 hc        1 MOL      0.042700
      9 H4          2.3236    0.4556    2.9683 hc        1 MOL      0.042700
     10 H5          1.1415    1.6481    2.3936 hc        1 MOL      0.042700
     11 H6          2.1710    0.7850    1.2255 hc        1 MOL      0.042700
     12 H7          1.9199   -2.0062    2.5927 hc        1 MOL      0.042700
     13 H8          0.4576   -2.5542    1.7448 hc        1 MOL      0.042700
     14 H9          1.7547   -1.7583    0.8380 hc        1 MOL      0.042700
     15 H10        -0.7634   -1.1079    3.3319 ho        1 MOL      0.396100
@<TRIPOS>BOND
     1    1    2 1   
     2    2    3 1   
     3    2    4 1   
     4    2    5 1   
     5    1    6 1   
     6    1    7 1   
     7    1    8 1   
     8    3    9 1   
     9    3   10 1   
    10    3   11 1   
    11    4   12 1   
    12    4   13 1   
    13    4   14 1   
    14    5   15 1   
@<TRIPOS>SUBSTRUCTURE
     1 MOL         1 TEMP              0 ****  ****    0 ROOT
