@<TRIPOS>MOLECULE
2-chlorophenol
   13    13     1     0     0
SMALL
No Charge or Current Charge


@<TRIPOS>ATOM
      1 C1          1.8857   -1.0368   -0.1081 ca        1 MOL     -0.093600
      2 C2          2.9296   -1.6353    0.5991 ca        1 MOL     -0.159200
      3 C3          2.8924   -1.6594    1.9894 ca        1 MOL     -0.085000
      4 C4          1.8163   -1.0872    2.6587 ca        1 MOL     -0.070900
      5 C5          0.7652   -0.4850    1.9600 ca        1 MOL      0.137100
      6 C6          0.8124   -0.4663    0.5648 ca        1 MOL     -0.151800
      7 O1         -0.3021    0.0842    2.5679 oh        1 MOL     -0.491900
      8 Cl1         1.7557   -1.1098    4.4064 cl        1 MOL     -0.096400
      9 H1          1.9064   -1.0134   -1.1934 ha        1 MOL      0.139500
     10 H2          3.7685   -2.0812    0.0754 ha        1 MOL      0.138800
     11 H3          3.6898   -2.1177    2.5660 ha        1 MOL      0.148100
     12 H4         -0.0096    0.0041    0.0348 ha        1 MOL      0.155200
     13 H5         -0.2146    0.0051    3.5316 ho        1 MOL      0.430300
@<TRIPOS>BOND
     1    1    6 ar  
     2    1    2 ar  
     3    2    3 ar  
     4    3    4 ar  
     5    4    5 ar  
     6    5    6 ar  
     7    5    7 1   
     8    4    8 1   
     9    1    9 1   
    10    2   10 1   
    11    3   11 1   
    12    6   12 1   
    13    7   13 1   
@<TRIPOS>SUBSTRUCTURE
     1 MOL         1 TEMP              0 ****  ****    0 ROOT
