@<TRIPOS>MOLECULE
neopentane
   17    16     1     0     0
SMALL
No Charge or Current Charge


@<TRIPOS>ATOM
      1 C1         -0.6117   -0.1249    0.9013 c3        1 MOL     -0.084900
      2 C2          0.2604   -0.3499    2.1409 c3        1 MOL     -0.059600
      3 C3          1.1834    0.8567    2.3418 c3        1 MOL     -0.084900
      4 C4          1.1060   -1.6130    1.9479 c3        1 MOL     -0.084900
      5 C5         -0.6357   -0.5184    3.3725 c3        1 MOL     -0.084900
      6 H1         -1.2832   -0.9757    0.7345 hc        1 MOL      0.033300
      7 H2         -1.2284    0.7751    1.0128 hc        1 MOL      0.033300
      8 H3          0.0062   -0.0014    0.0038 hc        1 MOL      0.033300
      9 H4          1.8213    0.7206    3.2234 hc        1 MOL      0.033300
     10 H5          0.6025    1.7759    2.4841 hc        1 MOL      0.033300
     11 H6          1.8357    1.0009    1.4721 hc        1 MOL      0.033300
     12 H7          1.7418   -1.7970    2.8222 hc        1 MOL      0.033300
     13 H8          0.4686   -2.4934    1.8025 hc        1 MOL      0.033300
     14 H9          1.7571   -1.5189    1.0705 hc        1 MOL      0.033300
     15 H10        -0.0351   -0.6804    4.2757 hc        1 MOL      0.033300
     16 H11        -1.3067   -1.3778    3.2551 hc        1 MOL      0.033300
     17 H12        -1.2539    0.3729    3.5337 hc        1 MOL      0.033300
@<TRIPOS>BOND
     1    1    2 1   
     2    2    3 1   
     3    2    4 1   
     4    2    5 1   
     5    1    6 1   
     6    1    7 1   
     7    1    8 1   
     8    3    9 1   
     9    3   10 1   
    10    3   11 1   
    11    4   12 1   
    12    4   13 1   
    13    4   14 1   
    14    5   15 1   
    15    5   16 1   
    16    5   17 1   
@<TRIPOS>SUBSTRUCTURE
     1 MOL         1 TEMP              0 ****  ****    0 ROOT
