@<TRIPOS>MOLECULE
1,1,2-trichloroethane
    8     7     1     0     0
SMALL
No Charge or Current Charge


@<TRIPOS>ATOM
      1 C1         -0.1998    0.6222    0.4631 c3        1 MOL      0.009500
      2 C2          0.4181   -0.4890   -0.3680 c3        1 MOL      0.133300
      3 Cl1        -0.0465   -0.3666   -2.0807 cl        1 MOL     -0.134900
      4 Cl2         0.0377   -2.0959    0.2938 cl        1 MOL     -0.134900
      5 Cl3        -1.9765    0.5872    0.5006 cl        1 MOL     -0.144900
      6 H1          0.1581    0.5334    1.4903 h1        1 MOL      0.086000
      7 H2          0.1065    1.5838    0.0474 h1        1 MOL      0.086000
      8 H3          1.5029   -0.3861   -0.3313 h2        1 MOL      0.099900
@<TRIPOS>BOND
     1    1    2 1   
     2    2    3 1   
     3    2    4 1   
     4    1    5 1   
     5    1    6 1   
     6    1    7 1   
     7    2    8 1   
@<TRIPOS>SUBSTRUCTURE
     1 MOL         1 TEMP              0 ****  ****    0 ROOT
