@<TRIPOS>MOLECULE
1,2-dibromoethane
    8     7     1     0     0
SMALL
No Charge or Current Charge


@<TRIPOS>ATOM
      1 C1          0.2466   -0.5504   -0.4535 c3        1 MOL     -0.014900
      2 C2         -0.2465    0.5504    0.4536 c3        1 MOL     -0.014900
      3 Br1        -1.3615   -0.2242    1.8482 br        1 MOL     -0.162000
      4 Br2         1.3616    0.2242   -1.8481 br        1 MOL     -0.162000
      5 H1         -0.5736   -1.0630   -0.9540 h1        1 MOL      0.088500
      6 H2          0.8647   -1.2710    0.0803 h1        1 MOL      0.088500
      7 H3          0.5737    1.0629    0.9541 h1        1 MOL      0.088500
      8 H4         -0.8645    1.2709   -0.0802 h1        1 MOL      0.088500
@<TRIPOS>BOND
     1    1    2 1   
     2    2    3 1   
     3    1    4 1   
     4    1    5 1   
     5    1    6 1   
     6    2    7 1   
     7    2    8 1   
@<TRIPOS>SUBSTRUCTURE
     1 MOL         1 TEMP              0 ****  ****    0 ROOT
