@<TRIPOS>MOLECULE
morpholine
   15    15     1     0     0
SMALL
No Charge or Current Charge


@<TRIPOS>ATOM
      1 C1          0.2663   -1.3941   -0.0445 c3        1 MOL      0.124000
      2 C2          1.1975   -0.3411   -0.6290 c3        1 MOL      0.125800
      3 O1          1.0911    0.8791    0.0817 os        1 MOL     -0.417100
      4 C3         -0.2355    1.3738    0.0567 c3        1 MOL      0.125800
      5 C4         -1.2038    0.3651    0.6589 c3        1 MOL      0.124000
      6 N1         -1.0995   -0.8794   -0.0986 n3        1 MOL     -0.813700
      7 H1          0.5918   -1.6174    0.9875 h1        1 MOL      0.038000
      8 H2          0.3296   -2.3132   -0.6366 h1        1 MOL      0.038000
      9 H3          2.2422   -0.6532   -0.5531 h1        1 MOL      0.053900
     10 H4          0.9436   -0.1769   -1.6882 h1        1 MOL      0.053900
     11 H5         -0.2294    2.3046    0.6296 h1        1 MOL      0.053900
     12 H6         -0.5319    1.5888   -0.9821 h1        1 MOL      0.053900
     13 H7         -0.9526    0.2307    1.7265 h1        1 MOL      0.038000
     14 H8         -2.2276    0.7469    0.5870 h1        1 MOL      0.038000
     15 H9         -1.7553   -1.5695    0.2569 hn        1 MOL      0.363400
@<TRIPOS>BOND
     1    1    6 1   
     2    1    2 1   
     3    2    3 1   
     4    3    4 1   
     5    4    5 1   
     6    5    6 1   
     7    1    7 1   
     8    1    8 1   
     9    2    9 1   
    10    2   10 1   
    11    4   11 1   
    12    4   12 1   
    13    5   13 1   
    14    5   14 1   
    15    6   15 1   
@<TRIPOS>SUBSTRUCTURE
     1 MOL         1 TEMP              0 ****  ****    0 ROOT
