@<TRIPOS>MOLECULE
4-bromophenol
   13    13     1     0     0
SMALL
No Charge or Current Charge


@<TRIPOS>ATOM
      1 C1          1.8778   -1.0328   -0.1027 ca        1 MOL     -0.187500
      2 C2          2.9124   -1.6262    0.6090 ca        1 MOL     -0.065900
      3 C3          2.8732   -1.6488    2.0012 ca        1 MOL     -0.066100
      4 C4          1.8050   -1.0819    2.6849 ca        1 MOL     -0.065900
      5 C5          0.7666   -0.4864    1.9729 ca        1 MOL     -0.187500
      6 C6          0.8033   -0.4620    0.5797 ca        1 MOL      0.137900
      7 O1         -0.1801    0.1043   -0.1741 oh        1 MOL     -0.492800
      8 Br1         4.2769   -2.4559    2.9638 br        1 MOL     -0.087400
      9 H1          1.8867   -1.0031   -1.1874 ha        1 MOL      0.147800
     10 H2          3.7504   -2.0720    0.0833 ha        1 MOL      0.148600
     11 H3          1.7799   -1.1032    3.7694 ha        1 MOL      0.148600
     12 H4         -0.0702   -0.0421    2.5072 ha        1 MOL      0.147800
     13 H5         -0.8717    0.4674    0.3971 ho        1 MOL      0.422500
@<TRIPOS>BOND
     1    1    6 ar  
     2    1    2 ar  
     3    2    3 ar  
     4    3    4 ar  
     5    4    5 ar  
     6    5    6 ar  
     7    6    7 1   
     8    3    8 1   
     9    1    9 1   
    10    2   10 1   
    11    4   11 1   
    12    5   12 1   
    13    7   13 1   
@<TRIPOS>SUBSTRUCTURE
     1 MOL         1 TEMP              0 ****  ****    0 ROOT
