@<TRIPOS>MOLECULE
methylsulfonylmethane
   11    10     1     0     0
SMALL
No Charge or Current Charge


@<TRIPOS>ATOM
      1 C1          1.0555    0.2212    0.0769 c3        1 MOL     -0.368200
      2 S1          1.2815    1.2520    1.5210 s6        1 MOL      1.348500
      3 O1          0.9717    0.4441    2.6987 o         1 MOL     -0.654700
      4 O2          0.5888    2.5160    1.2800 o         1 MOL     -0.654700
      5 C2          3.0385    1.5864    1.5351 c3        1 MOL     -0.368200
      6 H1          1.3578    0.7754   -0.8131 h1        1 MOL      0.116200
      7 H2          1.6299   -0.6988    0.1966 h1        1 MOL      0.116200
      8 H3         -0.0124   -0.0041    0.0356 h1        1 MOL      0.116200
      9 H4          3.2147    2.2186    2.4081 h1        1 MOL      0.116200
     10 H5          3.5840    0.6467    1.6347 h1        1 MOL      0.116200
     11 H6          3.3118    2.1195    0.6232 h1        1 MOL      0.116200
@<TRIPOS>BOND
     1    1    2 1   
     2    2    3 2   
     3    2    4 2   
     4    2    5 1   
     5    1    6 1   
     6    1    7 1   
     7    1    8 1   
     8    5    9 1   
     9    5   10 1   
    10    5   11 1   
@<TRIPOS>SUBSTRUCTURE
     1 MOL         1 TEMP              0 ****  ****    0 ROOT
