@<TRIPOS>MOLECULE
2-chloropropane
   11    10     1     0     0
SMALL
No Charge or Current Charge


@<TRIPOS>ATOM
      1 C1          0.8602   -0.5450    0.3902 c3        1 MOL     -0.103900
      2 C2          0.9951   -0.2878    1.8813 c3        1 MOL      0.060800
      3 C3          1.1952    1.1813    2.2117 c3        1 MOL     -0.103900
      4 Cl1         2.4019   -1.2388    2.5239 cl        1 MOL     -0.211800
      5 H1          0.7287   -1.6093    0.1806 hc        1 MOL      0.048400
      6 H2         -0.0103   -0.0019    0.0052 hc        1 MOL      0.048400
      7 H3          1.7514   -0.1932   -0.1390 hc        1 MOL      0.048400
      8 H4          0.1286   -0.6840    2.4161 h1        1 MOL      0.068600
      9 H5          1.3001    1.3361    3.2882 hc        1 MOL      0.048400
     10 H6          0.3305    1.7542    1.8581 hc        1 MOL      0.048400
     11 H7          2.0924    1.5644    1.7154 hc        1 MOL      0.048400
@<TRIPOS>BOND
     1    1    2 1   
     2    2    3 1   
     3    2    4 1   
     4    1    5 1   
     5    1    6 1   
     6    1    7 1   
     7    2    8 1   
     8    3    9 1   
     9    3   10 1   
    10    3   11 1   
@<TRIPOS>SUBSTRUCTURE
     1 MOL         1 TEMP              0 ****  ****    0 ROOT
