@<TRIPOS>MOLECULE
nitromethane
    7     6     1     0     0
SMALL
No Charge or Current Charge


@<TRIPOS>ATOM
      1 C1         -0.5574   -0.7427    0.6107 c3        1 MOL     -0.102700
      2 N1         -1.9246   -0.9035    0.1231 no        1 MOL      0.234200
      3 O1         -2.3544   -2.1323    0.1480 o         1 MOL     -0.209100
      4 O2         -2.2482   -0.0751   -0.8279 o         1 MOL     -0.209100
      5 H1          0.1482   -1.1349   -0.1420 h1        1 MOL      0.095600
      6 H2         -0.4427   -1.3072    1.5398 h1        1 MOL      0.095600
      7 H3         -0.3594    0.3207    0.7693 h1        1 MOL      0.095600
@<TRIPOS>BOND
     1    1    2 1   
     2    2    3 1   
     3    2    4 1   
     4    1    5 1   
     5    1    6 1   
     6    1    7 1   
@<TRIPOS>SUBSTRUCTURE
     1 MOL         1 TEMP              0 ****  ****    0 ROOT
