@<TRIPOS>MOLECULE
1,2-dichloroethane
    8     7     1     0     0
SMALL
No Charge or Current Charge


@<TRIPOS>ATOM
      1 C1         -0.5380   -0.5074   -0.2023 c3        1 MOL      0.020000
      2 C2          0.4744    0.4255    0.4266 c3        1 MOL      0.020000
      3 Cl1         1.8775    0.7234   -0.6405 cl        1 MOL     -0.171600
      4 Cl2        -1.3599    0.2306   -1.6079 cl        1 MOL     -0.171600
      5 H1         -1.3100   -0.7464    0.5328 h1        1 MOL      0.075800
      6 H2         -0.0651   -1.4286   -0.5454 h1        1 MOL      0.075800
      7 H3          0.0276    1.3932    0.6587 h1        1 MOL      0.075800
      8 H4          0.8581   -0.0277    1.3435 h1        1 MOL      0.075800
@<TRIPOS>BOND
     1    1    2 1   
     2    2    3 1   
     3    1    4 1   
     4    1    5 1   
     5    1    6 1   
     6    2    7 1   
     7    2    8 1   
@<TRIPOS>SUBSTRUCTURE
     1 MOL         1 TEMP              0 ****  ****    0 ROOT
