@<TRIPOS>MOLECULE
iodoethane
    8     7     1     0     0
SMALL
No Charge or Current Charge


@<TRIPOS>ATOM
      1 C1          0.1230   -0.6987    0.8297 c3        1 MOL     -0.092200
      2 C2          1.3747   -0.3770    1.6163 c3        1 MOL      0.070500
      3 I1          3.1560   -0.5024    0.3929 i         1 MOL     -0.257200
      4 H1         -0.7530   -0.6217    1.4924 hc        1 MOL      0.045800
      5 H2         -0.0152    0.0008   -0.0053 hc        1 MOL      0.045800
      6 H3          0.1576   -1.7178    0.4226 hc        1 MOL      0.045800
      7 H4          1.5507   -1.0786    2.4388 h1        1 MOL      0.070800
      8 H5          1.3773    0.6453    2.0096 h1        1 MOL      0.070800
@<TRIPOS>BOND
     1    1    2 1   
     2    2    3 1   
     3    1    4 1   
     4    1    5 1   
     5    1    6 1   
     6    2    7 1   
     7    2    8 1   
@<TRIPOS>SUBSTRUCTURE
     1 MOL         1 TEMP              0 ****  ****    0 ROOT
