@<TRIPOS>MOLECULE
methanol
    6     5     1     0     0
SMALL
No Charge or Current Charge


@<TRIPOS>ATOM
      1 C1          0.2914    0.7664    0.7034 c3        1 MOL      0.116600
      2 O1         -0.3098    2.0018    0.3635 oh        1 MOL     -0.598500
      3 H1         -0.0738    0.5071    1.6984 h1        1 MOL      0.028500
      4 H2          1.3857    0.8394    0.7410 h1        1 MOL      0.028500
      5 H3          0.0072   -0.0332    0.0075 h1        1 MOL      0.028500
      6 H4         -0.0079    2.2708   -0.5136 ho        1 MOL      0.396500
@<TRIPOS>BOND
     1    1    2 1   
     2    1    3 1   
     3    1    4 1   
     4    1    5 1   
     5    2    6 1   
@<TRIPOS>SUBSTRUCTURE
     1 MOL         1 TEMP              0 ****  ****    0 ROOT
