@<TRIPOS>MOLECULE
ethanethiol
    9     8     1     0     0
SMALL
No Charge or Current Charge


@<TRIPOS>ATOM
      1 C1          0.4158   -0.3512    0.9391 c3        1 MOL     -0.098800
      2 C2          1.8428   -0.8498    0.7541 c3        1 MOL      0.005900
      3 S1          2.9756    0.4162    0.0812 sh        1 MOL     -0.381100
      4 H1         -0.2257   -1.1574    1.3121 hc        1 MOL      0.043300
      5 H2          0.3786    0.4699    1.6626 hc        1 MOL      0.043300
      6 H3          0.0057    0.0130   -0.0069 hc        1 MOL      0.043300
      7 H4          1.8757   -1.6655    0.0262 h1        1 MOL      0.072000
      8 H5          2.2519   -1.2360    1.6915 h1        1 MOL      0.072000
      9 H6          2.8070    1.2977    1.0820 hs        1 MOL      0.200100
@<TRIPOS>BOND
     1    1    2 1   
     2    2    3 1   
     3    1    4 1   
     4    1    5 1   
     5    1    6 1   
     6    2    7 1   
     7    2    8 1   
     8    3    9 1   
@<TRIPOS>SUBSTRUCTURE
     1 MOL         1 TEMP              0 ****  ****    0 ROOT
