@<TRIPOS>MOLECULE
1,1,2-trichloro-1,2,2-trifluoro-ethane
    8     7     1     0     0
SMALL
No Charge or Current Charge


@<TRIPOS>ATOM
      1 C1          0.7392   -0.0211    0.2841 c3        1 MOL      0.495600
      2 C2         -0.6777   -0.0541   -0.3632 c3        1 MOL      0.340100
      3 F1         -0.5606   -0.8354   -1.4536 f         1 MOL     -0.157600
      4 Cl1        -1.1693    1.5587   -0.8727 cl        1 MOL     -0.093600
      5 Cl2        -1.8482   -0.7832    0.7327 cl        1 MOL     -0.093600
      6 F2          1.0936   -1.2801    0.5620 f         1 MOL     -0.182900
      7 F3          1.5963    0.4520   -0.6266 f         1 MOL     -0.182900
      8 Cl3         0.8244    0.9552    1.7429 cl        1 MOL     -0.125000
@<TRIPOS>BOND
     1    1    2 1   
     2    2    3 1   
     3    2    4 1   
     4    2    5 1   
     5    1    6 1   
     6    1    7 1   
     7    1    8 1   
@<TRIPOS>SUBSTRUCTURE
     1 MOL         1 TEMP              0 ****  ****    0 ROOT
