@<TRIPOS>MOLECULE
3-hydroxybenzonitrile
   14    14     1     0     0
SMALL
No Charge or Current Charge


@<TRIPOS>ATOM
      1 C1          1.8930   -1.0403   -0.1221 ca        1 MOL     -0.096100
      2 C2          2.9283   -1.6345    0.5896 ca        1 MOL     -0.127900
      3 C3          2.8643   -1.6437    1.9886 ca        1 MOL      0.016900
      4 C4          1.7892   -1.0718    2.6694 ca        1 MOL     -0.120100
      5 C5          0.7613   -0.4810    1.9368 ca        1 MOL      0.121500
      6 C6          0.8118   -0.4645    0.5418 ca        1 MOL     -0.192700
      7 O1         -0.2647    0.0629    2.6436 oh        1 MOL     -0.492600
      8 C7          3.9290   -2.2555    2.7446 cg        1 MOL      0.232000
      9 N1          4.7864   -2.7480    3.3462 n1        1 MOL     -0.357200
     10 H1          1.9238   -1.0228   -1.2071 ha        1 MOL      0.141100
     11 H2          3.7742   -2.0853    0.0827 ha        1 MOL      0.148300
     12 H3          1.7401   -1.0792    3.7529 ha        1 MOL      0.163800
     13 H4          0.0065   -0.0019   -0.0244 ha        1 MOL      0.140000
     14 H5         -0.9214    0.4443    2.0437 ho        1 MOL      0.422900
@<TRIPOS>BOND
     1    1    6 ar  
     2    1    2 ar  
     3    2    3 ar  
     4    3    4 ar  
     5    4    5 ar  
     6    5    6 ar  
     7    5    7 1   
     8    3    8 1   
     9    8    9 3   
    10    1   10 1   
    11    2   11 1   
    12    4   12 1   
    13    6   13 1   
    14    7   14 1   
@<TRIPOS>SUBSTRUCTURE
     1 MOL         1 TEMP              0 ****  ****    0 ROOT
