@<TRIPOS>MOLECULE
3-chloropyridine
   11    11     1     0     0
SMALL
No Charge or Current Charge


@<TRIPOS>ATOM
      1 C1          1.6496   -0.6233    2.8983 ca        1 MOL     -0.235900
      2 C2          1.4045   -0.0574    1.6513 ca        1 MOL     -0.090900
      3 C3          0.2372   -0.4252    0.9941 ca        1 MOL     -0.106300
      4 C4         -0.6356   -1.3327    1.5937 ca        1 MOL      0.404800
      5 N1         -0.3991   -1.8732    2.7873 nb        1 MOL     -0.655900
      6 C5          0.7215   -1.5220    3.4212 ca        1 MOL      0.393600
      7 Cl1        -0.1455    0.2352   -0.5677 cl        1 MOL     -0.073400
      8 H1          2.5460   -0.3715    3.4556 ha        1 MOL      0.150500
      9 H2          2.0933    0.6480    1.1969 ha        1 MOL      0.150900
     10 H3         -1.5515   -1.6263    1.0867 h4        1 MOL      0.036400
     11 H4          0.8836   -1.9814    4.3928 h4        1 MOL      0.026400
@<TRIPOS>BOND
     1    1    6 ar  
     2    1    2 ar  
     3    2    3 ar  
     4    3    4 ar  
     5    4    5 ar  
     6    5    6 ar  
     7    3    7 1   
     8    1    8 1   
     9    2    9 1   
    10    4   10 1   
    11    6   11 1   
@<TRIPOS>SUBSTRUCTURE
     1 MOL         1 TEMP              0 ****  ****    0 ROOT
