@<TRIPOS>MOLECULE
cyclopropane
    9     9     1     0     0
SMALL
No Charge or Current Charge


@<TRIPOS>ATOM
      1 C1          0.5935   -0.7124    0.5575 cx        1 MOL     -0.136500
      2 C2          2.0796   -0.4920    0.6166 cx        1 MOL     -0.136500
      3 C3          1.5180   -1.6109   -0.2156 cx        1 MOL     -0.136500
      4 H1         -0.0047    0.0012    0.0006 hc        1 MOL      0.068300
      5 H2          0.1048   -1.1212    1.4357 hc        1 MOL      0.068300
      6 H3          2.4863    0.3710    0.0998 hc        1 MOL      0.068300
      7 H4          2.5957   -0.7515    1.5351 hc        1 MOL      0.068300
      8 H5          1.5447   -1.5044   -1.2951 hc        1 MOL      0.068300
      9 H6          1.6541   -2.6268    0.1402 hc        1 MOL      0.068300
@<TRIPOS>BOND
     1    1    3 1   
     2    1    2 1   
     3    2    3 1   
     4    1    4 1   
     5    1    5 1   
     6    2    6 1   
     7    2    7 1   
     8    3    8 1   
     9    3    9 1   
@<TRIPOS>SUBSTRUCTURE
     1 MOL         1 TEMP              0 ****  ****    0 ROOT
