@<TRIPOS>MOLECULE
1,2-dichlorobenzene
   12    12     1     0     0
SMALL
No Charge or Current Charge


@<TRIPOS>ATOM
      1 C1          1.8896   -1.0386   -0.1196 ca        1 MOL     -0.121400
      2 C2          2.9246   -1.6326    0.6003 ca        1 MOL     -0.121300
      3 C3          2.8816   -1.6534    1.9902 ca        1 MOL     -0.117700
      4 C4          1.8055   -1.0815    2.6669 ca        1 MOL      0.017500
      5 C5          0.7682   -0.4862    1.9453 ca        1 MOL      0.017500
      6 C6          0.8145   -0.4671    0.5523 ca        1 MOL     -0.117700
      7 Cl1        -0.5876    0.2359    2.7505 cl        1 MOL     -0.070300
      8 Cl2         1.7843   -1.1254    4.4004 cl        1 MOL     -0.070300
      9 H1          1.9151   -1.0179   -1.2045 ha        1 MOL      0.141000
     10 H2          3.7674   -2.0810    0.0840 ha        1 MOL      0.141000
     11 H3          3.6784   -2.1115    2.5672 ha        1 MOL      0.150900
     12 H4         -0.0002   -0.0002    0.0082 ha        1 MOL      0.150900
@<TRIPOS>BOND
     1    1    6 ar  
     2    1    2 ar  
     3    2    3 ar  
     4    3    4 ar  
     5    4    5 ar  
     6    5    6 ar  
     7    5    7 1   
     8    4    8 1   
     9    1    9 1   
    10    2   10 1   
    11    3   11 1   
    12    6   12 1   
@<TRIPOS>SUBSTRUCTURE
     1 MOL         1 TEMP              0 ****  ****    0 ROOT
