@<TRIPOS>MOLECULE
cyclohexane
   18    18     1     0     0
SMALL
No Charge or Current Charge


@<TRIPOS>ATOM
      1 C1          0.3248    0.2343   -1.4217 c3        1 MOL     -0.075600
      2 C2         -1.0123   -0.3854   -1.0048 c3        1 MOL     -0.075500
      3 C3         -1.4208    0.0747    0.3975 c3        1 MOL     -0.075500
      4 C4         -0.3248   -0.2343    1.4218 c3        1 MOL     -0.075500
      5 C5          1.0123    0.3854    1.0049 c3        1 MOL     -0.075500
      6 C6          1.4208   -0.0747   -0.3974 c3        1 MOL     -0.075500
      7 H1          0.2060    1.3252   -1.5035 hc        1 MOL      0.037800
      8 H2          0.6195   -0.1261   -2.4145 hc        1 MOL      0.037800
      9 H3         -1.7931   -0.1314   -1.7315 hc        1 MOL      0.037800
     10 H4         -0.9187   -1.4818   -1.0107 hc        1 MOL      0.037800
     11 H5         -1.6030    1.1597    0.3813 hc        1 MOL      0.037800
     12 H6         -2.3638   -0.4000    0.6939 hc        1 MOL      0.037800
     13 H7         -0.6195    0.1262    2.4146 hc        1 MOL      0.037800
     14 H8         -0.2060   -1.3252    1.5036 hc        1 MOL      0.037800
     15 H9          0.9187    1.4818    1.0109 hc        1 MOL      0.037800
     16 H10         1.7931    0.1313    1.7316 hc        1 MOL      0.037800
     17 H11         2.3637    0.4000   -0.6939 hc        1 MOL      0.037800
     18 H12         1.6030   -1.1597   -0.3812 hc        1 MOL      0.037800
@<TRIPOS>BOND
     1    1    6 1   
     2    1    2 1   
     3    2    3 1   
     4    3    4 1   
     5    4    5 1   
     6    5    6 1   
     7    1    7 1   
     8    1    8 1   
     9    2    9 1   
    10    2   10 1   
    11    3   11 1   
    12    3   12 1   
    13    4   13 1   
    14    4   14 1   
    15    5   15 1   
    16    5   16 1   
    17    6   17 1   
    18    6   18 1   
@<TRIPOS>SUBSTRUCTURE
     1 MOL         1 TEMP              0 ****  ****    0 ROOT
