@<TRIPOS>MOLECULE
1,3,5-trichlorobenzene
   12    12     1     0     0
SMALL
No Charge or Current Charge


@<TRIPOS>ATOM
      1 C1          1.8856   -1.0361   -0.1221 ca        1 MOL     -0.122300
      2 C2          2.9075   -1.6235    0.6166 ca        1 MOL      0.031500
      3 C3          2.8856   -1.6561    2.0073 ca        1 MOL     -0.122200
      4 C4          1.8001   -1.0784    2.6580 ca        1 MOL      0.031500
      5 C5          0.7562   -0.4800    1.9598 ca        1 MOL     -0.122200
      6 C6          0.8198   -0.4704    0.5702 ca        1 MOL      0.031500
      7 Cl1        -0.4710    0.2704   -0.3285 cl        1 MOL     -0.074100
      8 Cl2         1.7471   -1.1050    4.3960 cl        1 MOL     -0.074100
      9 Cl3         4.2519   -2.3381   -0.2229 cl        1 MOL     -0.074100
     10 H1          1.9184   -1.0194   -1.2055 ha        1 MOL      0.164900
     11 H2          3.6905   -2.1182    2.5674 ha        1 MOL      0.164900
     12 H3         -0.0822   -0.0345    2.4830 ha        1 MOL      0.164900
@<TRIPOS>BOND
     1    1    6 ar  
     2    1    2 ar  
     3    2    3 ar  
     4    3    4 ar  
     5    4    5 ar  
     6    5    6 ar  
     7    6    7 1   
     8    4    8 1   
     9    2    9 1   
    10    1   10 1   
    11    3   11 1   
    12    5   12 1   
@<TRIPOS>SUBSTRUCTURE
     1 MOL         1 TEMP              0 ****  ****    0 ROOT
