@<TRIPOS>MOLECULE
pyrrole
   10    10     1     0     0
SMALL
No Charge or Current Charge


@<TRIPOS>ATOM
      1 C1          0.2852    0.0174    1.0426 cc        1 MOL     -0.196600
      2 C2          1.5222    0.4733    1.5795 cc        1 MOL     -0.196600
      3 C3          1.4587    0.3177    2.9454 cd        1 MOL     -0.170200
      4 N1          0.2321   -0.2136    3.2479 na        1 MOL     -0.181100
      5 C4         -0.4916   -0.4001    2.0991 cd        1 MOL     -0.170200
      6 H1         -0.0025   -0.0016    0.0009 ha        1 MOL      0.150000
      7 H2          2.3626    0.8697    1.0274 ha        1 MOL      0.150000
      8 H3          2.1777    0.5386    3.7207 h4        1 MOL      0.162100
      9 H4         -0.0901   -0.4340    4.1774 hn        1 MOL      0.290400
     10 H5         -1.4898   -0.8116    2.1291 h4        1 MOL      0.162100
@<TRIPOS>BOND
     1    1    5 2   
     2    1    2 1   
     3    2    3 2   
     4    3    4 1   
     5    4    5 1   
     6    1    6 1   
     7    2    7 1   
     8    3    8 1   
     9    4    9 1   
    10    5   10 1   
@<TRIPOS>SUBSTRUCTURE
     1 MOL         1 TEMP              0 ****  ****    0 ROOT
