@<TRIPOS>MOLECULE
chloroethane
    8     7     1     0     0
SMALL
No Charge or Current Charge


@<TRIPOS>ATOM
      1 C1          0.1427   -0.7272    0.8026 c3        1 MOL     -0.106700
      2 C2          1.3538   -0.3696    1.6416 c3        1 MOL      0.038500
      3 Cl1         2.8507   -0.3527    0.6416 cl        1 MOL     -0.202400
      4 H1         -0.7519   -0.7301    1.4349 hc        1 MOL      0.048600
      5 H2         -0.0023   -0.0010   -0.0014 hc        1 MOL      0.048600
      6 H3          0.2566   -1.7189    0.3572 hc        1 MOL      0.048600
      7 H4          1.5236   -1.0942    2.4390 h1        1 MOL      0.062400
      8 H5          1.2645    0.6251    2.0801 h1        1 MOL      0.062400
@<TRIPOS>BOND
     1    1    2 1   
     2    2    3 1   
     3    1    4 1   
     4    1    5 1   
     5    1    6 1   
     6    2    7 1   
     7    2    8 1   
@<TRIPOS>SUBSTRUCTURE
     1 MOL         1 TEMP              0 ****  ****    0 ROOT
