@<TRIPOS>MOLECULE
ethanol
    9     8     1     0     0
SMALL
No Charge or Current Charge


@<TRIPOS>ATOM
      1 C1          1.0599   -0.2647   -0.0092 c3        1 MOL     -0.096900
      2 C2          1.9190    0.9163   -0.4131 c3        1 MOL      0.129800
      3 O1          1.5116    1.3126   -1.7148 oh        1 MOL     -0.599500
      4 H1          1.3300   -0.6155    0.9917 hc        1 MOL      0.044800
      5 H2          0.0041    0.0209   -0.0085 hc        1 MOL      0.044800
      6 H3          1.1935   -1.0870   -0.7179 hc        1 MOL      0.044800
      7 H4          2.9806    0.6313   -0.4117 h1        1 MOL      0.017100
      8 H5          1.7875    1.7425    0.3000 h1        1 MOL      0.017100
      9 H6          2.0420    2.0670   -2.0035 ho        1 MOL      0.397900
@<TRIPOS>BOND
     1    1    2 1   
     2    2    3 1   
     3    1    4 1   
     4    1    5 1   
     5    1    6 1   
     6    2    7 1   
     7    2    8 1   
     8    3    9 1   
@<TRIPOS>SUBSTRUCTURE
     1 MOL         1 TEMP              0 ****  ****    0 ROOT
