@<TRIPOS>MOLECULE
thiophene
    9     9     1     0     0
SMALL
No Charge or Current Charge


@<TRIPOS>ATOM
      1 C1         -0.4734   -0.0936   -0.9745 cc        1 MOL     -0.156900
      2 C2         -0.2572    0.8058   -2.0636 cc        1 MOL     -0.156800
      3 C3         -0.9735    0.4606   -3.1742 cd        1 MOL     -0.169700
      4 S1         -1.9148   -0.9561   -2.9103 ss        1 MOL      0.009400
      5 C4         -1.3471   -1.0946   -1.2913 cd        1 MOL     -0.169700
      6 H1         -0.0012    0.0008   -0.0035 ha        1 MOL      0.152300
      7 H2          0.3993    1.6672   -2.0213 ha        1 MOL      0.152300
      8 H3         -1.0001    0.9603   -4.1332 h4        1 MOL      0.169500
      9 H4         -1.6887   -1.9059   -0.6628 h4        1 MOL      0.169500
@<TRIPOS>BOND
     1    1    5 2   
     2    1    2 1   
     3    2    3 2   
     4    3    4 1   
     5    4    5 1   
     6    1    6 1   
     7    2    7 1   
     8    3    8 1   
     9    5    9 1   
@<TRIPOS>SUBSTRUCTURE
     1 MOL         1 TEMP              0 ****  ****    0 ROOT
