@<TRIPOS>MOLECULE
2-methylprop-1-ene
   12    11     1     0     0
SMALL
No Charge or Current Charge


@<TRIPOS>ATOM
      1 C1          1.6920   -2.7794    1.2227 c3        1 MOL     -0.063200
      2 C2          1.1268   -1.7594    0.2701 c2        1 MOL     -0.110200
      3 C3          0.6461   -0.5852    0.6853 c2        1 MOL     -0.232000
      4 C4          1.1407   -2.1544   -1.1829 c3        1 MOL     -0.063200
      5 H1          1.1372   -3.7232    1.1521 hc        1 MOL      0.041000
      6 H2          2.7360   -3.0048    0.9723 hc        1 MOL      0.041000
      7 H3          1.6526   -2.4327    2.2587 hc        1 MOL      0.041000
      8 H4          0.2408    0.1420   -0.0135 ha        1 MOL      0.111200
      9 H5          0.6421   -0.3130    1.7376 ha        1 MOL      0.111200
     10 H6          0.5668   -3.0765   -1.3382 hc        1 MOL      0.041000
     11 H7          0.7175   -1.3731   -1.8197 hc        1 MOL      0.041000
     12 H8          2.1654   -2.3574   -1.5182 hc        1 MOL      0.041000
@<TRIPOS>BOND
     1    1    2 1   
     2    2    3 2   
     3    2    4 1   
     4    1    5 1   
     5    1    6 1   
     6    1    7 1   
     7    3    8 1   
     8    3    9 1   
     9    4   10 1   
    10    4   11 1   
    11    4   12 1   
@<TRIPOS>SUBSTRUCTURE
     1 MOL         1 TEMP              0 ****  ****    0 ROOT
