@<TRIPOS>MOLECULE
propane
   11    10     1     0     0
SMALL
No Charge or Current Charge


@<TRIPOS>ATOM
      1 C1         -0.5611   -0.2879    0.8968 c3        1 MOL     -0.092300
      2 C2          0.3801   -0.4576    2.0883 c3        1 MOL     -0.081400
      3 C3          1.1450    0.8267    2.4030 c3        1 MOL     -0.092300
      4 H1         -1.1060   -1.2112    0.6762 hc        1 MOL      0.032200
      5 H2         -1.2980    0.4995    1.0922 hc        1 MOL      0.032200
      6 H3         -0.0029   -0.0032   -0.0024 hc        1 MOL      0.032200
      7 H4         -0.1953   -0.7675    2.9692 hc        1 MOL      0.036500
      8 H5          1.0909   -1.2671    1.8820 hc        1 MOL      0.036500
      9 H6          1.8174    0.6991    3.2573 hc        1 MOL      0.032200
     10 H7          0.4534    1.6438    2.6382 hc        1 MOL      0.032200
     11 H8          1.7485    1.1407    1.5437 hc        1 MOL      0.032200
@<TRIPOS>BOND
     1    1    2 1   
     2    2    3 1   
     3    1    4 1   
     4    1    5 1   
     5    1    6 1   
     6    2    7 1   
     7    2    8 1   
     8    3    9 1   
     9    3   10 1   
    10    3   11 1   
@<TRIPOS>SUBSTRUCTURE
     1 MOL         1 TEMP              0 ****  ****    0 ROOT
