@<TRIPOS>MOLECULE
ethane
    8     7     1     0     0
SMALL
No Charge or Current Charge


@<TRIPOS>ATOM
      1 C1          0.8080   -0.5408    0.4955 c3        1 MOL     -0.093800
      2 C2          2.1619   -0.0491   -0.0143 c3        1 MOL     -0.093800
      3 H1         -0.0157   -0.0083    0.0097 hc        1 MOL      0.031300
      4 H2          0.6748   -1.6091    0.2985 hc        1 MOL      0.031300
      5 H3          0.7116   -0.3876    1.5749 hc        1 MOL      0.031300
      6 H4          2.9855   -0.5816    0.4714 hc        1 MOL      0.031300
      7 H5          2.2951    1.0192    0.1827 hc        1 MOL      0.031300
      8 H6          2.2582   -0.2022   -1.0937 hc        1 MOL      0.031300
@<TRIPOS>BOND
     1    1    2 1   
     2    1    3 1   
     3    1    4 1   
     4    1    5 1   
     5    2    6 1   
     6    2    7 1   
     7    2    8 1   
@<TRIPOS>SUBSTRUCTURE
     1 MOL         1 TEMP              0 ****  ****    0 ROOT
