@<TRIPOS>MOLECULE
ethanamine
   10     9     1     0     0
SMALL
No Charge or Current Charge


@<TRIPOS>ATOM
      1 C1          0.4309    0.1762    0.9765 c3        1 MOL     -0.137900
      2 C2          1.2348   -1.0174    1.4936 c3        1 MOL      0.147900
      3 N1          2.3928   -1.3936    0.6846 n3        1 MOL     -0.904400
      4 H1         -0.4190    0.3998    1.6311 hc        1 MOL      0.035900
      5 H2          1.0595    1.0723    0.9194 hc        1 MOL      0.035900
      6 H3          0.0408   -0.0245   -0.0280 hc        1 MOL      0.035900
      7 H4          0.5868   -1.8975    1.5689 h1        1 MOL      0.050900
      8 H5          1.5952   -0.8117    2.5075 h1        1 MOL      0.050900
      9 H6          3.0441   -0.6151    0.6113 hn        1 MOL      0.342400
     10 H7          2.1043   -1.6280   -0.2628 hn        1 MOL      0.342400
@<TRIPOS>BOND
     1    1    2 1   
     2    2    3 1   
     3    1    4 1   
     4    1    5 1   
     5    1    6 1   
     6    2    7 1   
     7    2    8 1   
     8    3    9 1   
     9    3   10 1   
@<TRIPOS>SUBSTRUCTURE
     1 MOL         1 TEMP              0 ****  ****    0 ROOT
