@<TRIPOS>MOLECULE
phenol
   13    13     1     0     0
SMALL
No Charge or Current Charge


@<TRIPOS>ATOM
      1 C1          1.8845   -1.0359   -0.1233 ca        1 MOL     -0.165900
      2 C2          2.9125   -1.6262    0.6134 ca        1 MOL     -0.094000
      3 C3          2.8697   -1.6466    2.0035 ca        1 MOL     -0.185200
      4 C4          1.7859   -1.0697    2.6663 ca        1 MOL      0.123000
      5 C5          0.7524   -0.4767    1.9411 ca        1 MOL     -0.185200
      6 C6          0.8072   -0.4629    0.5485 ca        1 MOL     -0.094000
      7 O1          1.7934   -1.1169    4.0300 oh        1 MOL     -0.498900
      8 H1          1.9237   -1.0232   -1.2077 ha        1 MOL      0.132400
      9 H2          3.7583   -2.0766    0.1016 ha        1 MOL      0.133700
     10 H3          3.6604   -2.1014    2.5917 ha        1 MOL      0.140900
     11 H4         -0.0905   -0.0282    2.4632 ha        1 MOL      0.140900
     12 H5         -0.0008    0.0005   -0.0104 ha        1 MOL      0.133700
     13 H6          0.9987   -0.6899    4.3799 ho        1 MOL      0.418600
@<TRIPOS>BOND
     1    1    6 ar  
     2    1    2 ar  
     3    2    3 ar  
     4    3    4 ar  
     5    4    5 ar  
     6    5    6 ar  
     7    4    7 1   
     8    1    8 1   
     9    2    9 1   
    10    3   10 1   
    11    5   11 1   
    12    6   12 1   
    13    7   13 1   
@<TRIPOS>SUBSTRUCTURE
     1 MOL         1 TEMP              0 ****  ****    0 ROOT
