@<TRIPOS>MOLECULE
benzonitrile
   13    13     1     0     0
SMALL
No Charge or Current Charge


@<TRIPOS>ATOM
      1 C1          1.8849   -1.0369   -0.1129 ca        1 MOL     -0.106800
      2 C2          2.9218   -1.6318    0.6053 ca        1 MOL     -0.135300
      3 C3          2.8846   -1.6557    1.9956 ca        1 MOL     -0.090800
      4 C4          1.7998   -1.0787    2.6656 ca        1 MOL     -0.018700
      5 C5          0.7575   -0.4808    1.9481 ca        1 MOL     -0.090800
      6 C6          0.8054   -0.4628    0.5580 ca        1 MOL     -0.135300
      7 C7          1.7557   -1.1004    4.1059 cg        1 MOL      0.233900
      8 N1          1.7202   -1.1178    5.2627 n1        1 MOL     -0.363800
      9 H1          1.9181   -1.0205   -1.1982 ha        1 MOL      0.137900
     10 H2          3.7617   -2.0785    0.0824 ha        1 MOL      0.140000
     11 H3          3.6848   -2.1154    2.5667 ha        1 MOL      0.144800
     12 H4         -0.0767   -0.0378    2.4828 ha        1 MOL      0.144800
     13 H5         -0.0014    0.0000   -0.0016 ha        1 MOL      0.140000
@<TRIPOS>BOND
     1    1    6 ar  
     2    1    2 ar  
     3    2    3 ar  
     4    3    4 ar  
     5    4    5 ar  
     6    5    6 ar  
     7    4    7 1   
     8    7    8 3   
     9    1    9 1   
    10    2   10 1   
    11    3   11 1   
    12    5   12 1   
    13    6   13 1   
@<TRIPOS>SUBSTRUCTURE
     1 MOL         1 TEMP              0 ****  ****    0 ROOT
