@<TRIPOS>MOLECULE
5-iodo-1H-pyrimidine-2,4-dione
   12    12     1     0     0
SMALL
No Charge or Current Charge


@<TRIPOS>ATOM
      1 C1          0.6893    1.3380   -0.0676 cc        1 MOL      0.091100
      2 C2         -0.4143    0.9649    0.6134 cd        1 MOL     -0.191400
      3 C3         -0.9005   -0.4243    0.5164 c         1 MOL      0.726100
      4 O1         -1.8646   -0.8806    1.0703 o         1 MOL     -0.585700
      5 N1         -0.1037   -1.2201   -0.3197 n         1 MOL     -0.584200
      6 C4          1.0291   -0.8718   -1.0299 c         1 MOL      0.803700
      7 O2          1.6502   -1.6301   -1.7264 o         1 MOL     -0.625800
      8 N2          1.3843    0.4601   -0.8569 n         1 MOL     -0.465700
      9 I1         -1.4844    2.2814    1.8174 i         1 MOL     -0.056000
     10 H1          1.0829    2.3544   -0.0245 h4        1 MOL      0.170200
     11 H2         -0.3987   -2.1883   -0.4184 hn        1 MOL      0.358300
     12 H3          2.2118    0.7538   -1.3629 hn        1 MOL      0.359500
@<TRIPOS>BOND
     1    1    8 1   
     2    1    2 2   
     3    2    3 1   
     4    3    4 2   
     5    3    5 1   
     6    5    6 1   
     7    6    7 2   
     8    6    8 1   
     9    2    9 1   
    10    1   10 1   
    11    5   11 1   
    12    8   12 1   
@<TRIPOS>SUBSTRUCTURE
     1 MOL         1 TEMP              0 ****  ****    0 ROOT
