@<TRIPOS>MOLECULE
trichloro(nitro)methane
    7     6     1     0     0
SMALL
No Charge or Current Charge


@<TRIPOS>ATOM
      1 C1          0.5856   -0.0231    0.1662 c3        1 MOL      0.182800
      2 N1         -0.9413    0.0881   -0.2458 no        1 MOL      0.231900
      3 O1         -1.3740   -0.8797   -0.8186 o         1 MOL     -0.147500
      4 O2         -1.5207    1.1037    0.0389 o         1 MOL     -0.147500
      5 Cl1         0.7066   -1.4398    1.2011 cl        1 MOL     -0.039900
      6 Cl2         1.4753   -0.2375   -1.3361 cl        1 MOL     -0.039900
      7 Cl3         1.0689    1.4289    1.0016 cl        1 MOL     -0.039900
@<TRIPOS>BOND
     1    1    2 1   
     2    2    3 1   
     3    2    4 1   
     4    1    5 1   
     5    1    6 1   
     6    1    7 1   
@<TRIPOS>SUBSTRUCTURE
     1 MOL         1 TEMP              0 ****  ****    0 ROOT
