@<TRIPOS>MOLECULE
isoindoline-1,3-dione
   16    17     1     0     0
SMALL
No Charge or Current Charge


@<TRIPOS>ATOM
      1 C1         -0.4074   -0.9241   -1.8933 ca        1 MOL     -0.117500
      2 C2         -0.1133   -0.9225   -0.5257 ca        1 MOL     -0.117500
      3 C3          0.0405   -2.1184    0.1830 ca        1 MOL     -0.061600
      4 C4         -0.1110   -3.2971   -0.5272 ca        1 MOL     -0.140500
      5 C5         -0.4036   -3.2986   -1.8877 ca        1 MOL     -0.140500
      6 C6         -0.5581   -2.1216   -2.5999 ca        1 MOL     -0.061600
      7 C7         -0.5009   -4.7203   -2.3477 c         1 MOL      0.723100
      8 O1         -0.7377   -5.1474   -3.4505 o         1 MOL     -0.570300
      9 N1         -0.2544   -5.4869   -1.2056 n         1 MOL     -0.623000
     10 C8         -0.0100   -4.7177   -0.0647 c         1 MOL      0.723100
     11 O2          0.2278   -5.1422    1.0389 o         1 MOL     -0.570300
     12 H1         -0.5203    0.0224   -2.4135 ha        1 MOL      0.144300
     13 H2         -0.0028    0.0251   -0.0072 ha        1 MOL      0.144300
     14 H3          0.2687   -2.1312    1.2443 ha        1 MOL      0.159700
     15 H4         -0.7863   -2.1368   -3.6613 ha        1 MOL      0.159700
     16 H5         -0.2532   -6.4991   -1.2047 hn        1 MOL      0.348600
@<TRIPOS>BOND
     1    1    6 ar  
     2    1    2 ar  
     3    2    3 ar  
     4    3    4 ar  
     5    4   10 1   
     6    4    5 ar  
     7    5    6 ar  
     8    5    7 1   
     9    7    8 2   
    10    7    9 1   
    11    9   10 1   
    12   10   11 2   
    13    1   12 1   
    14    2   13 1   
    15    3   14 1   
    16    6   15 1   
    17    9   16 1   
@<TRIPOS>SUBSTRUCTURE
     1 MOL         1 TEMP              0 ****  ****    0 ROOT
