@<TRIPOS>MOLECULE
1,1,1,2,2-pentachloroethane
    8     7     1     0     0
SMALL
No Charge or Current Charge


@<TRIPOS>ATOM
      1 C1         -0.4907    0.4122   -0.4723 c3        1 MOL      0.117500
      2 C2          0.4572   -0.4666    0.3905 c3        1 MOL      0.228200
      3 Cl1         1.8148   -0.9946   -0.6340 cl        1 MOL     -0.088300
      4 Cl2        -0.4444   -1.9090    0.9179 cl        1 MOL     -0.088300
      5 Cl3         1.0647    0.4188    1.7957 cl        1 MOL     -0.088300
      6 Cl4        -1.9265    0.9082    0.4388 cl        1 MOL     -0.102400
      7 Cl5         0.3502    1.8283   -1.1246 cl        1 MOL     -0.102400
      8 H1         -0.8226   -0.1962   -1.3137 h2        1 MOL      0.124000
@<TRIPOS>BOND
     1    1    2 1   
     2    2    3 1   
     3    2    4 1   
     4    2    5 1   
     5    1    6 1   
     6    1    7 1   
     7    1    8 1   
@<TRIPOS>SUBSTRUCTURE
     1 MOL         1 TEMP              0 ****  ****    0 ROOT
