@<TRIPOS>MOLECULE
pyridine
   11    11     1     0     0
SMALL
No Charge or Current Charge


@<TRIPOS>ATOM
      1 C1          1.3978   -0.0582    1.6460 ca        1 MOL     -0.094800
      2 C2          0.2313   -0.4187    0.9771 ca        1 MOL     -0.246000
      3 C3         -0.6307   -1.3272    1.5898 ca        1 MOL      0.393200
      4 N1         -0.4017   -1.8739    2.7859 nb        1 MOL     -0.665500
      5 C4          0.7204   -1.5195    3.4163 ca        1 MOL      0.393200
      6 C5          1.6496   -0.6207    2.8944 ca        1 MOL     -0.246000
      7 H1          2.0962    0.6465    1.2036 ha        1 MOL      0.135700
      8 H2         -0.0103   -0.0081    0.0017 ha        1 MOL      0.143700
      9 H3         -1.5514   -1.6320    1.0970 h4        1 MOL      0.021300
     10 H4          0.8837   -1.9786    4.3890 h4        1 MOL      0.021300
     11 H5          2.5446   -0.3718    3.4558 ha        1 MOL      0.143700
@<TRIPOS>BOND
     1    1    6 ar  
     2    1    2 ar  
     3    2    3 ar  
     4    3    4 ar  
     5    4    5 ar  
     6    5    6 ar  
     7    1    7 1   
     8    2    8 1   
     9    3    9 1   
    10    5   10 1   
    11    6   11 1   
@<TRIPOS>SUBSTRUCTURE
     1 MOL         1 TEMP              0 ****  ****    0 ROOT
