@<TRIPOS>MOLECULE
2-iodopropane
   11    10     1     0     0
SMALL
No Charge or Current Charge


@<TRIPOS>ATOM
      1 C1         -0.2721   -0.5455   -1.1511 c3        1 MOL     -0.092700
      2 C2         -0.1811   -0.3756    0.3530 c3        1 MOL      0.100700
      3 C3          0.2432    1.0174    0.7761 c3        1 MOL     -0.092700
      4 I1          1.2119   -1.8488    1.1753 i         1 MOL     -0.267600
      5 H1         -0.5862   -1.5590   -1.4311 hc        1 MOL      0.046300
      6 H2         -1.0131    0.1690   -1.5454 hc        1 MOL      0.046300
      7 H3          0.6950   -0.3345   -1.6293 hc        1 MOL      0.046300
      8 H4         -1.1253   -0.6575    0.8342 h1        1 MOL      0.074500
      9 H5          0.2960    1.1163    1.8677 hc        1 MOL      0.046300
     10 H6         -0.4937    1.7441    0.3969 hc        1 MOL      0.046300
     11 H7          1.2254    1.2739    0.3539 hc        1 MOL      0.046300
@<TRIPOS>BOND
     1    1    2 1   
     2    2    3 1   
     3    2    4 1   
     4    1    5 1   
     5    1    6 1   
     6    1    7 1   
     7    2    8 1   
     8    3    9 1   
     9    3   10 1   
    10    3   11 1   
@<TRIPOS>SUBSTRUCTURE
     1 MOL         1 TEMP              0 ****  ****    0 ROOT
