@<TRIPOS>MOLECULE
chloroform
    5     4     1     0     0
SMALL
No Charge or Current Charge


@<TRIPOS>ATOM
      1 C1         -0.0603    0.0761   -0.0442 c3        1 MOL      0.224300
      2 Cl1        -0.9625   -1.4444   -0.1390 cl        1 MOL     -0.114400
      3 Cl2         0.2442    0.5332    1.6390 cl        1 MOL     -0.114400
      4 Cl3         1.4509   -0.0175   -0.9634 cl        1 MOL     -0.114400
      5 H1         -0.6724    0.8528   -0.4926 h3        1 MOL      0.118900
@<TRIPOS>BOND
     1    1    2 1   
     2    1    3 1   
     3    1    4 1   
     4    1    5 1   
@<TRIPOS>SUBSTRUCTURE
     1 MOL         1 TEMP              0 ****  ****    0 ROOT
