@<TRIPOS>MOLECULE
1,1-dichloroethylene
    6     5     1     0     0
SMALL
No Charge or Current Charge


@<TRIPOS>ATOM
      1 C1         -0.9520    0.0719   -0.5364 c2        1 MOL     -0.206700
      2 C2         -1.7177   -0.9888   -0.7550 c2        1 MOL      0.075600
      3 Cl1        -1.2925   -2.5783   -0.2188 cl        1 MOL     -0.076600
      4 Cl2        -3.2249   -0.8986   -1.6004 cl        1 MOL     -0.076600
      5 H1         -1.2573    1.0496   -0.8905 ha        1 MOL      0.142200
      6 H2         -0.0147   -0.0305   -0.0021 ha        1 MOL      0.142200
@<TRIPOS>BOND
     1    1    2 2   
     2    2    3 1   
     3    2    4 1   
     4    1    5 1   
     5    1    6 1   
@<TRIPOS>SUBSTRUCTURE
     1 MOL         1 TEMP              0 ****  ****    0 ROOT
