@<TRIPOS>MOLECULE
4-hydroxybenzonitrile
   14    14     1     0     0
SMALL
No Charge or Current Charge


@<TRIPOS>ATOM
      1 C1          1.8936   -1.0417   -0.1033 ca        1 MOL     -0.053000
      2 C2          2.9196   -1.6307    0.6177 ca        1 MOL     -0.192500
      3 C3          2.8651   -1.6452    2.0144 ca        1 MOL      0.149100
      4 C4          1.7836   -1.0699    2.6860 ca        1 MOL     -0.192500
      5 C5          0.7563   -0.4801    1.9610 ca        1 MOL     -0.053000
      6 C6          0.8048   -0.4623    0.5634 ca        1 MOL     -0.058400
      7 C7         -0.2594    0.1487   -0.1859 cg        1 MOL      0.237300
      8 N1         -1.1173    0.6412   -0.7881 n1        1 MOL     -0.368100
      9 O1          3.8990   -2.2363    2.6634 oh        1 MOL     -0.490700
     10 H1          1.9271   -1.0257   -1.1880 ha        1 MOL      0.148000
     11 H2          3.7713   -2.0849    0.1227 ha        1 MOL      0.150300
     12 H3          1.7456   -1.0836    3.7726 ha        1 MOL      0.150300
     13 H4         -0.0873   -0.0310    2.4754 ha        1 MOL      0.148000
     14 H5          3.7672   -2.1941    3.6216 ho        1 MOL      0.425100
@<TRIPOS>BOND
     1    1    6 ar  
     2    1    2 ar  
     3    2    3 ar  
     4    3    4 ar  
     5    4    5 ar  
     6    5    6 ar  
     7    6    7 1   
     8    7    8 3   
     9    3    9 1   
    10    1   10 1   
    11    2   11 1   
    12    4   12 1   
    13    5   13 1   
    14    9   14 1   
@<TRIPOS>SUBSTRUCTURE
     1 MOL         1 TEMP              0 ****  ****    0 ROOT
