@<TRIPOS>MOLECULE
5-fluoro-1H-pyrimidine-2,4-dione
   12    12     1     0     0
SMALL
No Charge or Current Charge


@<TRIPOS>ATOM
      1 C1          0.6626    1.3921   -0.0397 cc        1 MOL     -0.002100
      2 C2         -0.2048    0.9168    0.8649 cd        1 MOL     -0.026700
      3 C3         -0.7520   -0.4400    0.7665 c         1 MOL      0.700900
      4 O1         -1.5361   -0.9435    1.5376 o         1 MOL     -0.576400
      5 N1         -0.2615   -1.1271   -0.3504 n         1 MOL     -0.582100
      6 C4          0.6329   -0.6854   -1.3139 c         1 MOL      0.803500
      7 O2          0.9983   -1.3628   -2.2503 o         1 MOL     -0.626600
      8 N2          1.0695    0.6100   -1.1007 n         1 MOL     -0.460600
      9 F1         -0.6110    1.6570    1.8982 f         1 MOL     -0.129000
     10 H1          1.0719    2.3932    0.0252 h4        1 MOL      0.176800
     11 H2         -0.6027   -2.0754   -0.4764 hn        1 MOL      0.359800
     12 H3          1.7239    0.9637   -1.7859 hn        1 MOL      0.362300
@<TRIPOS>BOND
     1    1    8 1   
     2    1    2 2   
     3    2    3 1   
     4    3    4 2   
     5    3    5 1   
     6    5    6 1   
     7    6    7 2   
     8    6    8 1   
     9    2    9 1   
    10    1   10 1   
    11    5   11 1   
    12    8   12 1   
@<TRIPOS>SUBSTRUCTURE
     1 MOL         1 TEMP              0 ****  ****    0 ROOT
