@<TRIPOS>MOLECULE
1,2,3-trichlorobenzene
   12    12     1     0     0
SMALL
No Charge or Current Charge


@<TRIPOS>ATOM
      1 C1          1.8854   -1.0362   -0.1204 ca        1 MOL     -0.113600
      2 C2          2.9192   -1.6294    0.5945 ca        1 MOL     -0.118000
      3 C3          2.8752   -1.6498    1.9854 ca        1 MOL      0.023600
      4 C4          1.7996   -1.0787    2.6777 ca        1 MOL      0.016700
      5 C5          0.7679   -0.4858    1.9384 ca        1 MOL      0.023600
      6 C6          0.8092   -0.4640    0.5475 ca        1 MOL     -0.118000
      7 Cl1        -0.5884    0.2366    2.7405 cl        1 MOL     -0.062700
      8 Cl2         1.7468   -1.1048    4.4020 cl        1 MOL     -0.044700
      9 Cl3         4.1805   -2.3974    2.8467 cl        1 MOL     -0.062700
     10 H1          1.9186   -1.0198   -1.2049 ha        1 MOL      0.146600
     11 H2          3.7660   -2.0802    0.0885 ha        1 MOL      0.154600
     12 H3         -0.0054    0.0028    0.0045 ha        1 MOL      0.154600
@<TRIPOS>BOND
     1    1    6 ar  
     2    1    2 ar  
     3    2    3 ar  
     4    3    4 ar  
     5    4    5 ar  
     6    5    6 ar  
     7    5    7 1   
     8    4    8 1   
     9    3    9 1   
    10    1   10 1   
    11    2   11 1   
    12    6   12 1   
@<TRIPOS>SUBSTRUCTURE
     1 MOL         1 TEMP              0 ****  ****    0 ROOT
