@<TRIPOS>MOLECULE
1,1-difluoroethane
    8     7     1     0     0
SMALL
No Charge or Current Charge


@<TRIPOS>ATOM
      1 C1         -0.3758    0.2927   -0.6299 c3        1 MOL     -0.152200
      2 C2          0.2953   -0.3474    0.5532 c3        1 MOL      0.398700
      3 F1          0.0600    0.3913    1.6789 f         1 MOL     -0.249500
      4 F2          1.6495   -0.3644    0.3685 f         1 MOL     -0.249500
      5 H1         -0.1658   -0.2841   -1.5336 hc        1 MOL      0.063600
      6 H2         -1.4556    0.3311   -0.4689 hc        1 MOL      0.063600
      7 H3          0.0081    1.3086   -0.7520 hc        1 MOL      0.063600
      8 H4         -0.0203   -1.3730    0.7618 h2        1 MOL      0.061500
@<TRIPOS>BOND
     1    1    2 1   
     2    2    3 1   
     3    2    4 1   
     4    1    5 1   
     5    1    6 1   
     6    1    7 1   
     7    2    8 1   
@<TRIPOS>SUBSTRUCTURE
     1 MOL         1 TEMP              0 ****  ****    0 ROOT
