@<TRIPOS>MOLECULE
1,1-dichloroethane
    8     7     1     0     0
SMALL
No Charge or Current Charge


@<TRIPOS>ATOM
      1 C1         -0.4758    0.6929    0.7035 c3        1 MOL     -0.112200
      2 C2         -0.0930    0.3283    2.1211 c3        1 MOL      0.156100
      3 Cl1        -0.9088    1.4104    3.2883 cl        1 MOL     -0.162700
      4 Cl2         1.6815    0.4064    2.3309 cl        1 MOL     -0.162700
      5 H1          0.0122    0.0089    0.0041 hc        1 MOL      0.062500
      6 H2         -1.5600    0.6175    0.5852 hc        1 MOL      0.062500
      7 H3         -0.1625    1.7156    0.4804 hc        1 MOL      0.062500
      8 H4         -0.3881   -0.6851    2.3858 h2        1 MOL      0.094100
@<TRIPOS>BOND
     1    1    2 1   
     2    2    3 1   
     3    2    4 1   
     4    1    5 1   
     5    1    6 1   
     6    1    7 1   
     7    2    8 1   
@<TRIPOS>SUBSTRUCTURE
     1 MOL         1 TEMP              0 ****  ****    0 ROOT
