@<TRIPOS>MOLECULE
cyclohexanone
   17    17     1     0     0
SMALL
No Charge or Current Charge


@<TRIPOS>ATOM
      1 C1          0.9288    0.3343   -1.5558 c3        1 MOL     -0.083000
      2 C2          1.1234    1.2053   -0.3133 c3        1 MOL     -0.072500
      3 C3         -0.1531    1.2479    0.5430 c3        1 MOL     -0.181100
      4 C4         -0.6435   -0.1522    0.8648 c         1 MOL      0.569000
      5 O1         -0.9104   -0.5023    1.9945 o         1 MOL     -0.532900
      6 C5         -0.7685   -1.0857   -0.3256 c3        1 MOL     -0.181100
      7 C6          0.5189   -1.0873   -1.1667 c3        1 MOL     -0.072500
      8 H1          1.8506    0.3116   -2.1478 hc        1 MOL      0.045000
      9 H2          0.1509    0.7772   -2.1947 hc        1 MOL      0.045000
     10 H3          1.9472    0.7988    0.2887 hc        1 MOL      0.047400
     11 H4          1.4106    2.2240   -0.5951 hc        1 MOL      0.047400
     12 H5         -0.0067    1.7912    1.4802 hc        1 MOL      0.068700
     13 H6         -0.9466    1.7556   -0.0255 hc        1 MOL      0.068700
     14 H7         -1.0283   -2.0833    0.0379 hc        1 MOL      0.068700
     15 H8         -1.5998   -0.7218   -0.9477 hc        1 MOL      0.068700
     16 H9          1.3275   -1.5514   -0.5862 hc        1 MOL      0.047400
     17 H10         0.3741   -1.7068   -2.0583 hc        1 MOL      0.047400
@<TRIPOS>BOND
     1    1    7 1   
     2    1    2 1   
     3    2    3 1   
     4    3    4 1   
     5    4    5 2   
     6    4    6 1   
     7    6    7 1   
     8    1    8 1   
     9    1    9 1   
    10    2   10 1   
    11    2   11 1   
    12    3   12 1   
    13    3   13 1   
    14    6   14 1   
    15    6   15 1   
    16    7   16 1   
    17    7   17 1   
@<TRIPOS>SUBSTRUCTURE
     1 MOL         1 TEMP              0 ****  ****    0 ROOT
