@<TRIPOS>MOLECULE
2,2,2-trifluoroethanol
    9     8     1     0     0
SMALL
No Charge or Current Charge


@<TRIPOS>ATOM
      1 C1          0.7602   -0.3515    0.6873 c3        1 MOL      0.094700
      2 C2          1.3527    0.8254    1.4335 c3        1 MOL      0.632100
      3 F1          1.8909    1.7268    0.6037 f         1 MOL     -0.232200
      4 F2          2.3023    0.4459    2.2960 f         1 MOL     -0.232200
      5 F3          0.3865    1.4446    2.1380 f         1 MOL     -0.232200
      6 O1          1.8074   -0.9554   -0.0242 oh        1 MOL     -0.577100
      7 H1          0.3148   -1.0185    1.4357 h1        1 MOL      0.063100
      8 H2         -0.0265    0.0432    0.0327 h1        1 MOL      0.063100
      9 H3          1.4703   -1.7154   -0.5161 ho        1 MOL      0.420700
@<TRIPOS>BOND
     1    1    2 1   
     2    2    3 1   
     3    2    4 1   
     4    2    5 1   
     5    1    6 1   
     6    1    7 1   
     7    1    8 1   
     8    6    9 1   
@<TRIPOS>SUBSTRUCTURE
     1 MOL         1 TEMP              0 ****  ****    0 ROOT
