@<TRIPOS>MOLECULE
1,4-benzoquinone
   12    12     1     0     0
SMALL
No Charge or Current Charge


@<TRIPOS>ATOM
      1 C1         -0.7297    1.1841    0.3688 cc        1 MOL     -0.181600
      2 C2          0.5414    1.0851    0.7746 cd        1 MOL     -0.181600
      3 C3          1.3680   -0.1068    0.4372 c         1 MOL      0.532100
      4 O1          2.5234   -0.1966    0.8056 o         1 MOL     -0.491100
      5 C4          0.7296   -1.1843   -0.3686 cc        1 MOL     -0.181600
      6 C5         -0.5415   -1.0852   -0.7744 cd        1 MOL     -0.181600
      7 C6         -1.3683    0.1064   -0.4364 c         1 MOL      0.532100
      8 O2         -2.5234    0.1966   -0.8056 o         1 MOL     -0.491100
      9 H1         -1.3584    2.0398    0.5984 ha        1 MOL      0.161100
     10 H2          1.0357    1.8532    1.3627 ha        1 MOL      0.161100
     11 H3          1.3584   -2.0398   -0.5984 ha        1 MOL      0.161100
     12 H4         -1.0357   -1.8532   -1.3627 ha        1 MOL      0.161100
@<TRIPOS>BOND
     1    1    7 1   
     2    1    2 2   
     3    2    3 1   
     4    3    4 2   
     5    3    5 1   
     6    5    6 2   
     7    6    7 1   
     8    7    8 2   
     9    1    9 1   
    10    2   10 1   
    11    5   11 1   
    12    6   12 1   
@<TRIPOS>SUBSTRUCTURE
     1 MOL         1 TEMP              0 ****  ****    0 ROOT
