@<TRIPOS>MOLECULE
1,1,1-trichloroethane
    8     7     1     0     0
SMALL
No Charge or Current Charge


@<TRIPOS>ATOM
      1 C1          1.0221    0.2681   -0.2727 c3        1 MOL     -0.112000
      2 C2          1.2837    1.7375   -0.0026 c3        1 MOL      0.263900
      3 Cl1         0.1581    2.7409   -0.9596 cl        1 MOL     -0.123600
      4 Cl2         1.0454    2.0874    1.7325 cl        1 MOL     -0.123600
      5 Cl3         2.9615    2.1497   -0.4551 cl        1 MOL     -0.123600
      6 H1          1.7157   -0.3366    0.3157 hc        1 MOL      0.073000
      7 H2         -0.0050    0.0263    0.0089 hc        1 MOL      0.073000
      8 H3          1.1687    0.0640   -1.3357 hc        1 MOL      0.073000
@<TRIPOS>BOND
     1    1    2 1   
     2    2    3 1   
     3    2    4 1   
     4    2    5 1   
     5    1    6 1   
     6    1    7 1   
     7    1    8 1   
@<TRIPOS>SUBSTRUCTURE
     1 MOL         1 TEMP              0 ****  ****    0 ROOT
