@<TRIPOS>MOLECULE
dichloromethane
    5     4     1     0     0
SMALL
No Charge or Current Charge


@<TRIPOS>ATOM
      1 C1          0.1386   -0.0327    0.0340 c3        1 MOL      0.122800
      2 Cl1        -0.5232   -0.1571   -1.6068 cl        1 MOL     -0.151400
      3 Cl2        -1.0542    0.5291    1.2202 cl        1 MOL     -0.151400
      4 H1          0.9592    0.6797    0.0152 h2        1 MOL      0.090000
      5 H2          0.4797   -1.0190    0.3374 h2        1 MOL      0.090000
@<TRIPOS>BOND
     1    1    2 1   
     2    1    3 1   
     3    1    4 1   
     4    1    5 1   
@<TRIPOS>SUBSTRUCTURE
     1 MOL         1 TEMP              0 ****  ****    0 ROOT
