@<TRIPOS>MOLECULE
tetrahydropyran
   16    16     1     0     0
SMALL
No Charge or Current Charge


@<TRIPOS>ATOM
      1 C1         -0.4528   -0.9495   -1.0488 c3        1 MOL     -0.076900
      2 C2         -0.5092   -1.2919    0.4423 c3        1 MOL     -0.112500
      3 C3          0.5455   -0.4919    1.2007 c3        1 MOL      0.127100
      4 O1          0.3925    0.9002    0.9947 os        1 MOL     -0.416000
      5 C4          0.5251    1.2527   -0.3699 c3        1 MOL      0.127100
      6 C5         -0.5309    0.5684   -1.2326 c3        1 MOL     -0.112500
      7 H1         -1.2593   -1.4507   -1.5950 hc        1 MOL      0.041900
      8 H2          0.4951   -1.3165   -1.4687 hc        1 MOL      0.041900
      9 H3         -1.4989   -1.0391    0.8437 hc        1 MOL      0.049600
     10 H4         -0.3486   -2.3640    0.6076 hc        1 MOL      0.049600
     11 H5          0.4712   -0.6487    2.2800 h1        1 MOL      0.045300
     12 H6          1.5554   -0.7999    0.8759 h1        1 MOL      0.045300
     13 H7          0.4362    2.3414   -0.4119 h1        1 MOL      0.045300
     14 H8          1.5347    0.9749   -0.7218 h1        1 MOL      0.045300
     15 H9         -1.5219    0.9284   -0.9278 hc        1 MOL      0.049600
     16 H10        -0.3859    0.8469   -2.2833 hc        1 MOL      0.049600
@<TRIPOS>BOND
     1    1    6 1   
     2    1    2 1   
     3    2    3 1   
     4    3    4 1   
     5    4    5 1   
     6    5    6 1   
     7    1    7 1   
     8    1    8 1   
     9    2    9 1   
    10    2   10 1   
    11    3   11 1   
    12    3   12 1   
    13    5   13 1   
    14    5   14 1   
    15    6   15 1   
    16    6   16 1   
@<TRIPOS>SUBSTRUCTURE
     1 MOL         1 TEMP              0 ****  ****    0 ROOT
