@<TRIPOS>MOLECULE
cyclopentanone
   14    14     1     0     0
SMALL
No Charge or Current Charge


@<TRIPOS>ATOM
      1 C1          1.0389   -0.7799    0.9754 c3        1 MOL     -0.082100
      2 C2          1.5847    0.3489    0.0792 c3        1 MOL     -0.082100
      3 C3          0.3373    1.1597   -0.2864 c3        1 MOL     -0.191300
      4 C4         -0.7905    0.1296   -0.3186 c         1 MOL      0.569700
      5 O1         -1.8981    0.3118   -0.7629 o         1 MOL     -0.526200
      6 C5         -0.2840   -1.1687    0.3074 c3        1 MOL     -0.191300
      7 H1          0.8480   -0.3898    1.9827 hc        1 MOL      0.050100
      8 H2          1.7356   -1.6167    1.0718 hc        1 MOL      0.050100
      9 H3          2.3566    0.9444    0.5734 hc        1 MOL      0.050100
     10 H4          2.0282   -0.0827   -0.8266 hc        1 MOL      0.050100
     11 H5          0.0921    1.8826    0.5041 hc        1 MOL      0.075800
     12 H6          0.3891    1.7100   -1.2292 hc        1 MOL      0.075800
     13 H7         -1.0386   -1.6032    0.9677 hc        1 MOL      0.075800
     14 H8         -0.1162   -1.8792   -0.5139 hc        1 MOL      0.075800
@<TRIPOS>BOND
     1    1    6 1   
     2    1    2 1   
     3    2    3 1   
     4    3    4 1   
     5    4    5 2   
     6    4    6 1   
     7    1    7 1   
     8    1    8 1   
     9    2    9 1   
    10    2   10 1   
    11    3   11 1   
    12    3   12 1   
    13    6   13 1   
    14    6   14 1   
@<TRIPOS>SUBSTRUCTURE
     1 MOL         1 TEMP              0 ****  ****    0 ROOT
