@<TRIPOS>MOLECULE
cyclohexene
   16    16     1     0     0
SMALL
No Charge or Current Charge


@<TRIPOS>ATOM
      1 C1         -0.7591   -1.2309   -0.1848 c3        1 MOL     -0.075500
      2 C2          0.6859   -1.2468    0.3171 c3        1 MOL     -0.075500
      3 C3          1.4717   -0.0745   -0.2758 c3        1 MOL     -0.048600
      4 C4          0.6907    1.2133   -0.1996 c2        1 MOL     -0.168200
      5 C5         -0.6173    1.2663    0.0673 c2        1 MOL     -0.168200
      6 C6         -1.4726    0.0422    0.2776 c3        1 MOL     -0.048600
      7 H1         -1.3021   -2.1169    0.1623 hc        1 MOL      0.040200
      8 H2         -0.7562   -1.2645   -1.2831 hc        1 MOL      0.040200
      9 H3          0.6844   -1.1632    1.4127 hc        1 MOL      0.040200
     10 H4          1.1746   -2.1952    0.0680 hc        1 MOL      0.040200
     11 H5          2.4289    0.0451    0.2470 hc        1 MOL      0.045900
     12 H6          1.7268   -0.2853   -1.3251 hc        1 MOL      0.045900
     13 H7          1.2385    2.1395   -0.3674 ha        1 MOL      0.120000
     14 H8         -1.1089    2.2357    0.1338 ha        1 MOL      0.120000
     15 H9         -1.7364   -0.0403    1.3425 hc        1 MOL      0.045900
     16 H10        -2.4227    0.1617   -0.2581 hc        1 MOL      0.045900
@<TRIPOS>BOND
     1    1    6 1   
     2    1    2 1   
     3    2    3 1   
     4    3    4 1   
     5    4    5 2   
     6    5    6 1   
     7    1    7 1   
     8    1    8 1   
     9    2    9 1   
    10    2   10 1   
    11    3   11 1   
    12    3   12 1   
    13    4   13 1   
    14    5   14 1   
    15    6   15 1   
    16    6   16 1   
@<TRIPOS>SUBSTRUCTURE
     1 MOL         1 TEMP              0 ****  ****    0 ROOT
