@<TRIPOS>MOLECULE
1,1-dioxido-2,3,4,5-tetrahydrothiophene
   15    15     1     0     0
SMALL
No Charge or Current Charge


@<TRIPOS>ATOM
      1 C1         -1.1233    1.4542   -0.1711 c3        1 MOL     -0.059900
      2 C2          0.0274    1.4093   -1.1916 c3        1 MOL     -0.059900
      3 C3          1.1439    0.5872   -0.5468 c3        1 MOL     -0.308300
      4 S1          0.2836   -0.7406    0.3525 s6        1 MOL      1.209700
      5 C4         -1.3722    0.0089    0.2617 c3        1 MOL     -0.308300
      6 O1          0.7381   -0.7544    1.7437 o         1 MOL     -0.605600
      7 O2          0.3036   -1.9657   -0.4479 o         1 MOL     -0.605600
      8 H1         -2.0285    1.8964   -0.5953 hc        1 MOL      0.062400
      9 H2         -0.8286    2.0583    0.6948 hc        1 MOL      0.062400
     10 H3         -0.3119    0.9215   -2.1127 hc        1 MOL      0.062400
     11 H4          0.3805    2.4102   -1.4534 hc        1 MOL      0.062400
     12 H5          1.8323    0.1144   -1.2494 h1        1 MOL      0.122100
     13 H6          1.6981    1.1590    0.2019 h1        1 MOL      0.122100
     14 H7         -1.9274   -0.5576   -0.4902 h1        1 MOL      0.122100
     15 H8         -1.8373   -0.1046    1.2425 h1        1 MOL      0.122100
@<TRIPOS>BOND
     1    1    5 1   
     2    1    2 1   
     3    2    3 1   
     4    3    4 1   
     5    4    5 1   
     6    4    6 2   
     7    4    7 2   
     8    1    8 1   
     9    1    9 1   
    10    2   10 1   
    11    2   11 1   
    12    3   12 1   
    13    3   13 1   
    14    5   14 1   
    15    5   15 1   
@<TRIPOS>SUBSTRUCTURE
     1 MOL         1 TEMP              0 ****  ****    0 ROOT
