@<TRIPOS>MOLECULE
acetic
    8     7     1     0     0
SMALL
No Charge or Current Charge


@<TRIPOS>ATOM
      1 C1         -1.0103    0.3037   -0.1508 c3        1 MOL     -0.197700
      2 C2         -1.5867    0.5757    1.2221 c         1 MOL      0.623700
      3 O1         -2.4328   -0.0881    1.7515 o         1 MOL     -0.484500
      4 O2         -1.0791    1.6593    1.8618 oh        1 MOL     -0.586800
      5 H1         -1.1842    1.1575   -0.8141 hc        1 MOL      0.074400
      6 H2          0.0697    0.1352   -0.0849 hc        1 MOL      0.074400
      7 H3         -1.4880   -0.5813   -0.5692 hc        1 MOL      0.074400
      8 H4         -0.4060    2.1003    1.3227 ho        1 MOL      0.422000
@<TRIPOS>BOND
     1    1    2 1   
     2    2    3 2   
     3    2    4 1   
     4    1    5 1   
     5    1    6 1   
     6    1    7 1   
     7    4    8 1   
@<TRIPOS>SUBSTRUCTURE
     1 MOL         1 TEMP              0 ****  ****    0 ROOT
