@<TRIPOS>MOLECULE
chloro(fluoro)methane
    5     4     1     0     0
SMALL
No Charge or Current Charge


@<TRIPOS>ATOM
      1 C1          0.1185   -0.0117   -0.0714 c3        1 MOL      0.271600
      2 F1         -0.6689    0.0929   -1.1779 f         1 MOL     -0.213800
      3 Cl1        -0.8839    0.0724    1.3922 cl        1 MOL     -0.205300
      4 H1          0.8153    0.8250   -0.0559 h2        1 MOL      0.073700
      5 H2          0.6190   -0.9787   -0.0871 h2        1 MOL      0.073700
@<TRIPOS>BOND
     1    1    2 1   
     2    1    3 1   
     3    1    4 1   
     4    1    5 1   
@<TRIPOS>SUBSTRUCTURE
     1 MOL         1 TEMP              0 ****  ****    0 ROOT
