@<TRIPOS>MOLECULE
prop-1-ene
    9     8     1     0     0
SMALL
No Charge or Current Charge


@<TRIPOS>ATOM
      1 C1          0.8662   -1.4684    2.1734 c3        1 MOL     -0.069200
      2 C2          1.2813   -1.5008    0.7316 c2        1 MOL     -0.164300
      3 C3          0.8885   -0.6225   -0.1901 c2        1 MOL     -0.227100
      4 H1          0.3490   -2.3929    2.4543 hc        1 MOL      0.041000
      5 H2          0.1962   -0.6263    2.3713 hc        1 MOL      0.041000
      6 H3          1.7379   -1.3760    2.8312 hc        1 MOL      0.041000
      7 H4          1.9531   -2.3080    0.4388 ha        1 MOL      0.116900
      8 H5          1.2203   -0.6910   -1.2218 ha        1 MOL      0.110300
      9 H6          0.2192    0.1984    0.0593 ha        1 MOL      0.110300
@<TRIPOS>BOND
     1    1    2 1   
     2    2    3 2   
     3    1    4 1   
     4    1    5 1   
     5    1    6 1   
     6    2    7 1   
     7    3    8 1   
     8    3    9 1   
@<TRIPOS>SUBSTRUCTURE
     1 MOL         1 TEMP              0 ****  ****    0 ROOT
