@<TRIPOS>MOLECULE
iodobenzene
   12    12     1     0     0
SMALL
No Charge or Current Charge


@<TRIPOS>ATOM
      1 C1          1.8853   -1.0362   -0.1185 ca        1 MOL     -0.112300
      2 C2          2.9193   -1.6297    0.6040 ca        1 MOL     -0.133900
      3 C3          2.8833   -1.6547    1.9979 ca        1 MOL     -0.096400
      4 C4          1.8002   -1.0784    2.6594 ca        1 MOL      0.023000
      5 C5          0.7590   -0.4814    1.9507 ca        1 MOL     -0.096400
      6 C6          0.8086   -0.4639    0.5570 ca        1 MOL     -0.133900
      7 I1          1.7356   -1.1105    4.7658 i         1 MOL     -0.145600
      8 H1          1.9188   -1.0196   -1.2088 ha        1 MOL      0.134800
      9 H2          3.7659   -2.0800    0.0829 ha        1 MOL      0.136900
     10 H3          3.6924   -2.1191    2.5634 ha        1 MOL      0.143500
     11 H4         -0.0835   -0.0336    2.4793 ha        1 MOL      0.143500
     12 H5         -0.0050    0.0027   -0.0010 ha        1 MOL      0.136900
@<TRIPOS>BOND
     1    1    6 ar  
     2    1    2 ar  
     3    2    3 ar  
     4    3    4 ar  
     5    4    5 ar  
     6    5    6 ar  
     7    4    7 1   
     8    1    8 1   
     9    2    9 1   
    10    3   10 1   
    11    5   11 1   
    12    6   12 1   
@<TRIPOS>SUBSTRUCTURE
     1 MOL         1 TEMP              0 ****  ****    0 ROOT
