@<TRIPOS>MOLECULE
chloromethane
    5     4     1     0     0
SMALL
No Charge or Current Charge


@<TRIPOS>ATOM
      1 C1          0.0888   -0.0706   -0.0966 c3        1 MOL      0.013700
      2 Cl1        -0.9759    0.7759    1.0621 cl        1 MOL     -0.189000
      3 H1          0.7010    0.6693   -0.6100 h1        1 MOL      0.058400
      4 H2          0.7190   -0.7663    0.4552 h1        1 MOL      0.058400
      5 H3         -0.5329   -0.6084   -0.8108 h1        1 MOL      0.058400
@<TRIPOS>BOND
     1    1    2 1   
     2    1    3 1   
     3    1    4 1   
     4    1    5 1   
@<TRIPOS>SUBSTRUCTURE
     1 MOL         1 TEMP              0 ****  ****    0 ROOT
