@<TRIPOS>MOLECULE
5-bromo-1H-pyrimidine-2,4-dione
   12    12     1     0     0
SMALL
No Charge or Current Charge


@<TRIPOS>ATOM
      1 C1          0.7502    1.3088   -0.1110 cc        1 MOL      0.080800
      2 C2         -0.2299    0.9615    0.7438 cd        1 MOL     -0.246300
      3 C3         -0.8226   -0.3822    0.6691 c         1 MOL      0.726500
      4 O1         -1.7037   -0.8138    1.3769 o         1 MOL     -0.581400
      5 N1         -0.2581   -1.1750   -0.3397 n         1 MOL     -0.583300
      6 C4          0.7461   -0.8512   -1.2318 c         1 MOL      0.802100
      7 O2          1.1726   -1.6074   -2.0766 o         1 MOL     -0.626600
      8 N2          1.2227    0.4400   -1.0631 n         1 MOL     -0.463700
      9 Br1        -0.8777    2.1293    2.0370 br        1 MOL     -0.001600
     10 H1          1.2138    2.2888   -0.0902 h4        1 MOL      0.173900
     11 H2         -0.6357   -2.1136   -0.4293 hn        1 MOL      0.359200
     12 H3          1.9601    0.7151   -1.6989 hn        1 MOL      0.360400
@<TRIPOS>BOND
     1    1    8 1   
     2    1    2 2   
     3    2    3 1   
     4    3    4 2   
     5    3    5 1   
     6    5    6 1   
     7    6    7 2   
     8    6    8 1   
     9    2    9 1   
    10    1   10 1   
    11    5   11 1   
    12    8   12 1   
@<TRIPOS>SUBSTRUCTURE
     1 MOL         1 TEMP              0 ****  ****    0 ROOT
