@<TRIPOS>MOLECULE
propanenitrile
    9     8     1     0     0
SMALL
No Charge or Current Charge


@<TRIPOS>ATOM
      1 C1          0.6234   -0.7510    0.4248 c3        1 MOL     -0.094500
      2 C2          1.2008   -0.2314    1.7465 c3        1 MOL     -0.022900
      3 C3          2.0638   -1.2274    2.3945 c1        1 MOL      0.209700
      4 N1          2.7396   -2.0245    2.8889 n1        1 MOL     -0.376200
      5 H1         -0.0129    0.0147   -0.0264 hc        1 MOL      0.046500
      6 H2          1.4227   -0.9968   -0.2786 hc        1 MOL      0.046500
      7 H3          0.0225   -1.6486    0.5894 hc        1 MOL      0.046500
      8 H4          0.3998    0.0279    2.4461 hc        1 MOL      0.072100
      9 H5          1.7936    0.6743    1.5832 hc        1 MOL      0.072100
@<TRIPOS>BOND
     1    1    2 1   
     2    2    3 1   
     3    3    4 3   
     4    1    5 1   
     5    1    6 1   
     6    1    7 1   
     7    2    8 1   
     8    2    9 1   
@<TRIPOS>SUBSTRUCTURE
     1 MOL         1 TEMP              0 ****  ****    0 ROOT
