@<TRIPOS>MOLECULE
fluorobenzene
   12    12     1     0     0
SMALL
No Charge or Current Charge


@<TRIPOS>ATOM
      1 C1          1.8852   -1.0363   -0.1134 ca        1 MOL     -0.145000
      2 C2          2.9202   -1.6304    0.6082 ca        1 MOL     -0.105300
      3 C3          2.8860   -1.6563    2.0015 ca        1 MOL     -0.165500
      4 C4          1.8007   -1.0782    2.6418 ca        1 MOL      0.123700
      5 C5          0.7561   -0.4798    1.9540 ca        1 MOL     -0.165500
      6 C6          0.8074   -0.4634    0.5611 ca        1 MOL     -0.105300
      7 F1          1.7593   -1.0986    3.9902 f         1 MOL     -0.142400
      8 H1          1.9185   -1.0199   -1.1982 ha        1 MOL      0.135900
      9 H2          3.7614   -2.0777    0.0870 ha        1 MOL      0.136800
     10 H3          3.6756   -2.1108    2.5905 ha        1 MOL      0.147900
     11 H4         -0.0685   -0.0427    2.5070 ha        1 MOL      0.147900
     12 H5         -0.0006    0.0002    0.0031 ha        1 MOL      0.136800
@<TRIPOS>BOND
     1    1    6 ar  
     2    1    2 ar  
     3    2    3 ar  
     4    3    4 ar  
     5    4    5 ar  
     6    5    6 ar  
     7    4    7 1   
     8    1    8 1   
     9    2    9 1   
    10    3   10 1   
    11    5   11 1   
    12    6   12 1   
@<TRIPOS>SUBSTRUCTURE
     1 MOL         1 TEMP              0 ****  ****    0 ROOT
