@<TRIPOS>MOLECULE
methanesulfonyl
    8     7     1     0     0
SMALL
No Charge or Current Charge


@<TRIPOS>ATOM
      1 C1          0.7206   -0.6051    0.5880 c3        1 MOL     -0.385700
      2 S1          2.3530    0.0003    0.2066 s6        1 MOL      1.352700
      3 O1          3.0173    0.3882    1.4294 o         1 MOL     -0.581100
      4 O2          2.2823    0.8785   -0.9383 o         1 MOL     -0.581100
      5 Cl1         3.2466   -1.7616   -0.4356 cl        1 MOL     -0.222900
      6 H1          0.2808   -1.0085   -0.3240 h1        1 MOL      0.139400
      7 H2          0.8068   -1.3597    1.3699 h1        1 MOL      0.139400
      8 H3          0.1598    0.2632    0.9422 h1        1 MOL      0.139400
@<TRIPOS>BOND
     1    1    2 1   
     2    2    3 2   
     3    2    4 2   
     4    2    5 1   
     5    1    6 1   
     6    1    7 1   
     7    1    8 1   
@<TRIPOS>SUBSTRUCTURE
     1 MOL         1 TEMP              0 ****  ****    0 ROOT
