@<TRIPOS>MOLECULE
iodomethane
    5     4     1     0     0
SMALL
No Charge or Current Charge


@<TRIPOS>ATOM
      1 C1          0.1352   -0.1109   -0.1483 c3        1 MOL      0.036100
      2 I1         -1.1299    0.9262    1.2381 i         1 MOL     -0.243500
      3 H1          0.7670    0.6317   -0.6422 h1        1 MOL      0.069100
      4 H2          0.7366   -0.8245    0.4206 h1        1 MOL      0.069100
      5 H3         -0.5091   -0.6224   -0.8681 h1        1 MOL      0.069100
@<TRIPOS>BOND
     1    1    2 1   
     2    1    3 1   
     3    1    4 1   
     4    1    5 1   
@<TRIPOS>SUBSTRUCTURE
     1 MOL         1 TEMP              0 ****  ****    0 ROOT
