@<TRIPOS>MOLECULE
(Z)-1,2-dichloroethylene
    6     5     1     0     0
SMALL
No Charge or Current Charge


@<TRIPOS>ATOM
      1 C1         -0.6264    0.0749   -0.2089 c2        1 MOL     -0.073800
      2 C2          0.6349   -0.0961    0.1716 c2        1 MOL     -0.073800
      3 Cl1         1.8315   -0.9154   -0.7553 cl        1 MOL     -0.086800
      4 Cl2        -1.2833   -0.4930   -1.6948 cl        1 MOL     -0.086800
      5 H1         -1.3306    0.6016    0.4240 h4        1 MOL      0.160600
      6 H2          0.9848    0.2876    1.1224 h4        1 MOL      0.160600
@<TRIPOS>BOND
     1    1    2 2   
     2    2    3 1   
     3    1    4 1   
     4    1    5 1   
     5    2    6 1   
@<TRIPOS>SUBSTRUCTURE
     1 MOL         1 TEMP              0 ****  ****    0 ROOT
