@<TRIPOS>MOLECULE
(2R)-2-bromo-2-chloro-1,1,1-trifluoro-ethane
    8     7     1     0     0
SMALL
No Charge or Current Charge


@<TRIPOS>ATOM
      1 C1          0.2361    0.2347    0.6703 c3        1 MOL      0.023600
      2 H1          1.2940    0.0677    0.8642 h2        1 MOL      0.133300
      3 C2         -0.1122   -0.3224   -0.7111 c3        1 MOL      0.640500
      4 F1          0.1431   -1.6354   -0.7516 f         1 MOL     -0.217700
      5 F2         -1.3946   -0.1346   -1.0162 f         1 MOL     -0.217700
      6 F3          0.6395    0.2653   -1.6477 f         1 MOL     -0.217700
      7 Cl1        -0.7173   -0.6034    1.8965 cl        1 MOL     -0.078800
      8 Br1        -0.0886    2.1284    0.6954 br        1 MOL     -0.065400
@<TRIPOS>BOND
     1    1    2 1   
     2    1    3 1   
     3    3    4 1   
     4    3    5 1   
     5    3    6 1   
     6    1    7 1   
     7    1    8 1   
@<TRIPOS>SUBSTRUCTURE
     1 MOL         1 TEMP              0 ****  ****    0 ROOT
