@<TRIPOS>MOLECULE
6-chloro-1H-pyrimidine-2,4-dione
   12    12     1     0     0
SMALL
No Charge or Current Charge


@<TRIPOS>ATOM
      1 C1         -0.7285    0.6820    1.0040 cc        1 MOL     -0.300000
      2 C2         -0.7373   -0.7796    1.0198 c         1 MOL      0.714000
      3 O1         -1.3217   -1.4688    1.8286 o         1 MOL     -0.596100
      4 N1          0.0109   -1.3715   -0.0117 n         1 MOL     -0.585100
      5 C3          0.7286   -0.7392   -1.0041 c         1 MOL      0.813000
      6 O2          1.3548   -1.3116   -1.8675 o         1 MOL     -0.625500
      7 N2          0.6698    0.6504   -0.9266 n         1 MOL     -0.476900
      8 C4         -0.0344    1.3177    0.0440 cd        1 MOL      0.189400
      9 Cl1         0.0457    3.0353   -0.0710 cl        1 MOL     -0.047500
     10 H1         -1.2817    1.2118    1.7665 ha        1 MOL      0.193100
     11 H2          0.0281   -2.3864   -0.0329 hn        1 MOL      0.358500
     12 H3          1.1844    1.1548   -1.6385 hn        1 MOL      0.363100
@<TRIPOS>BOND
     1    1    8 2   
     2    1    2 1   
     3    2    3 2   
     4    2    4 1   
     5    4    5 1   
     6    5    6 2   
     7    5    7 1   
     8    7    8 1   
     9    8    9 1   
    10    1   10 1   
    11    4   11 1   
    12    7   12 1   
@<TRIPOS>SUBSTRUCTURE
     1 MOL         1 TEMP              0 ****  ****    0 ROOT
