@<TRIPOS>MOLECULE
2-chloropyridine
   11    11     1     0     0
SMALL
No Charge or Current Charge


@<TRIPOS>ATOM
      1 C1          1.3941   -0.0615    1.6481 ca        1 MOL     -0.087100
      2 C2          0.2278   -0.4182    0.9729 ca        1 MOL     -0.246600
      3 C3         -0.6328   -1.3246    1.5830 ca        1 MOL      0.407700
      4 N1         -0.4005   -1.8708    2.7819 nb        1 MOL     -0.654900
      5 C4          0.7083   -1.5161    3.3977 ca        1 MOL      0.489400
      6 C5          1.6517   -0.6190    2.8940 ca        1 MOL     -0.235100
      7 Cl1         0.9971   -2.2396    4.9621 cl        1 MOL     -0.151900
      8 H1          2.0963    0.6425    1.2112 ha        1 MOL      0.142800
      9 H2         -0.0110   -0.0060   -0.0015 ha        1 MOL      0.148900
     10 H3         -1.5545   -1.6337    1.0967 h4        1 MOL      0.029400
     11 H4          2.5418   -0.3786    3.4638 ha        1 MOL      0.157500
@<TRIPOS>BOND
     1    1    6 ar  
     2    1    2 ar  
     3    2    3 ar  
     4    3    4 ar  
     5    4    5 ar  
     6    5    6 ar  
     7    5    7 1   
     8    1    8 1   
     9    2    9 1   
    10    3   10 1   
    11    6   11 1   
@<TRIPOS>SUBSTRUCTURE
     1 MOL         1 TEMP              0 ****  ****    0 ROOT
