@<TRIPOS>MOLECULE
1,2,3,4,5,6-hexachlorobenzene
   12    12     1     0     0
SMALL
No Charge or Current Charge


@<TRIPOS>ATOM
      1 C1          1.8853   -1.0363   -0.1169 ca        1 MOL      0.026100
      2 C2          2.9249   -1.6329    0.6060 ca        1 MOL      0.026200
      3 C3          2.8819   -1.6541    2.0046 ca        1 MOL      0.026200
      4 C4          1.7995   -1.0787    2.6801 ca        1 MOL      0.026200
      5 C5          0.7599   -0.4821    1.9572 ca        1 MOL      0.026200
      6 C6          0.8029   -0.4609    0.5586 ca        1 MOL      0.026200
      7 Cl1        -0.4754    0.2728   -0.3316 cl        1 MOL     -0.026200
      8 Cl2        -0.5710    0.2254    2.7891 cl        1 MOL     -0.026200
      9 Cl3         1.7470   -1.1050    4.4013 cl        1 MOL     -0.026200
     10 Cl4         4.1602   -2.3877    2.8948 cl        1 MOL     -0.026200
     11 Cl5         4.2558   -2.3403   -0.2259 cl        1 MOL     -0.026200
     12 Cl6         1.9378   -1.0100   -1.8381 cl        1 MOL     -0.026200
@<TRIPOS>BOND
     1    1    6 ar  
     2    1    2 ar  
     3    2    3 ar  
     4    3    4 ar  
     5    4    5 ar  
     6    5    6 ar  
     7    6    7 1   
     8    5    8 1   
     9    4    9 1   
    10    3   10 1   
    11    2   11 1   
    12    1   12 1   
@<TRIPOS>SUBSTRUCTURE
     1 MOL         1 TEMP              0 ****  ****    0 ROOT
