@<TRIPOS>MOLECULE
1,4-dichlorobenzene
   12    12     1     0     0
SMALL
No Charge or Current Charge


@<TRIPOS>ATOM
      1 C1          1.8879   -1.0377   -0.1146 ca        1 MOL     -0.116500
      2 C2          2.9215   -1.6310    0.6044 ca        1 MOL     -0.116400
      3 C3          2.8677   -1.6460    1.9948 ca        1 MOL      0.015700
      4 C4          1.7970   -1.0772    2.6778 ca        1 MOL     -0.116400
      5 C5          0.7634   -0.4840    1.9588 ca        1 MOL     -0.116400
      6 C6          0.8172   -0.4690    0.5684 ca        1 MOL      0.015700
      7 Cl1        -0.4769    0.2738   -0.3319 cl        1 MOL     -0.087300
      8 Cl2         4.1617   -2.3888    2.8951 cl        1 MOL     -0.087300
      9 H1          1.9126   -1.0165   -1.1992 ha        1 MOL      0.152300
     10 H2          3.7644   -2.0795    0.0891 ha        1 MOL      0.152300
     11 H3          1.7723   -1.0984    3.7624 ha        1 MOL      0.152300
     12 H4         -0.0796   -0.0354    2.4741 ha        1 MOL      0.152300
@<TRIPOS>BOND
     1    1    6 ar  
     2    1    2 ar  
     3    2    3 ar  
     4    3    4 ar  
     5    4    5 ar  
     6    5    6 ar  
     7    6    7 1   
     8    3    8 1   
     9    1    9 1   
    10    2   10 1   
    11    4   11 1   
    12    5   12 1   
@<TRIPOS>SUBSTRUCTURE
     1 MOL         1 TEMP              0 ****  ****    0 ROOT
