@<TRIPOS>MOLECULE
1,2,3,4-tetrachlorobenzene
   12    12     1     0     0
SMALL
No Charge or Current Charge


@<TRIPOS>ATOM
      1 C1          1.8920   -1.0399   -0.1175 ca        1 MOL     -0.111100
      2 C2          2.9216   -1.6312    0.5987 ca        1 MOL     -0.111000
      3 C3          2.8811   -1.6534    1.9891 ca        1 MOL      0.022100
      4 C4          1.8050   -1.0813    2.6752 ca        1 MOL      0.022600
      5 C5          0.7623   -0.4824    1.9500 ca        1 MOL      0.022600
      6 C6          0.8156   -0.4671    0.5524 ca        1 MOL      0.022100
      7 Cl1        -0.4500    0.2613   -0.3775 cl        1 MOL     -0.054600
      8 Cl2        -0.5724    0.2279    2.7775 cl        1 MOL     -0.038400
      9 Cl3         1.7573   -1.1101    4.3979 cl        1 MOL     -0.038400
     10 Cl4         4.1859   -2.4011    2.8469 cl        1 MOL     -0.054600
     11 H1          1.9141   -1.0174   -1.2015 ha        1 MOL      0.159300
     12 H2          3.7651   -2.0804    0.0860 ha        1 MOL      0.159300
@<TRIPOS>BOND
     1    1    6 ar  
     2    1    2 ar  
     3    2    3 ar  
     4    3    4 ar  
     5    4    5 ar  
     6    5    6 ar  
     7    6    7 1   
     8    5    8 1   
     9    4    9 1   
    10    3   10 1   
    11    1   11 1   
    12    2   12 1   
@<TRIPOS>SUBSTRUCTURE
     1 MOL         1 TEMP              0 ****  ****    0 ROOT
