@<TRIPOS>MOLECULE
benzenethiol
   13    13     1     0     0
SMALL
No Charge or Current Charge


@<TRIPOS>ATOM
      1 C1          1.8849   -1.0354   -0.1220 ca        1 MOL     -0.137100
      2 C2          2.9181   -1.6349    0.5950 ca        1 MOL     -0.113100
      3 C3          2.8865   -1.6692    1.9874 ca        1 MOL     -0.132200
      4 C4          1.8147   -1.0956    2.6762 ca        1 MOL      0.017100
      5 C5          0.7772   -0.4926    1.9583 ca        1 MOL     -0.132200
      6 C6          0.8153   -0.4659    0.5672 ca        1 MOL     -0.113100
      7 S1          1.6963   -1.1010    4.4486 sh        1 MOL     -0.256100
      8 H1          1.9130   -1.0116   -1.2069 ha        1 MOL      0.134200
      9 H2          3.7576   -2.0828    0.0708 ha        1 MOL      0.133300
     10 H3          3.6976   -2.1436    2.5337 ha        1 MOL      0.136700
     11 H4         -0.0580   -0.0429    2.4888 ha        1 MOL      0.136700
     12 H5          0.0035    0.0056    0.0208 ha        1 MOL      0.133300
     13 H6          2.8862   -1.6780    4.6763 hs        1 MOL      0.192500
@<TRIPOS>BOND
     1    1    6 ar  
     2    1    2 ar  
     3    2    3 ar  
     4    3    4 ar  
     5    4    5 ar  
     6    5    6 ar  
     7    4    7 1   
     8    1    8 1   
     9    2    9 1   
    10    3   10 1   
    11    5   11 1   
    12    6   12 1   
    13    7   13 1   
@<TRIPOS>SUBSTRUCTURE
     1 MOL         1 TEMP              0 ****  ****    0 ROOT
