@<TRIPOS>MOLECULE
quinoline
   17    18     1     0     0
SMALL
No Charge or Current Charge


@<TRIPOS>ATOM
      1 C1          0.1301    2.1067   -0.4552 ca        1 MOL     -0.127000
      2 C2         -0.5665    0.8841   -0.2736 ca        1 MOL     -0.123900
      3 C3         -1.9273    0.8253   -0.4413 ca        1 MOL     -0.164200
      4 C4         -2.6575    1.9895   -0.7995 ca        1 MOL      0.392900
      5 C5         -1.9591    3.2154   -0.9815 ca        1 MOL     -0.147900
      6 C6         -0.5512    3.2466   -0.8014 ca        1 MOL     -0.111700
      7 C7         -2.7205    4.3570   -1.3387 ca        1 MOL     -0.080100
      8 C8         -4.0765    4.2359   -1.4918 ca        1 MOL     -0.249900
      9 C9         -4.6728    2.9639   -1.2858 ca        1 MOL      0.411100
     10 N1         -4.0088    1.8826   -0.9551 nb        1 MOL     -0.657100
     11 H1          1.2071    2.1359   -0.3186 ha        1 MOL      0.134400
     12 H2         -0.0134   -0.0096    0.0003 ha        1 MOL      0.135400
     13 H3         -2.4845   -0.0971   -0.3086 ha        1 MOL      0.150700
     14 H4         -0.0252    4.1880   -0.9426 ha        1 MOL      0.133700
     15 H5         -2.2180    5.3105   -1.4857 ha        1 MOL      0.138200
     16 H6         -4.6961    5.0842   -1.7644 ha        1 MOL      0.143600
     17 H7         -5.7492    2.8512   -1.4037 h4        1 MOL      0.021900
@<TRIPOS>BOND
     1    1    6 ar  
     2    1    2 ar  
     3    2    3 ar  
     4    3    4 ar  
     5    4   10 ar  
     6    4    5 ar  
     7    5    6 ar  
     8    5    7 ar  
     9    7    8 ar  
    10    8    9 ar  
    11    9   10 ar  
    12    1   11 1   
    13    2   12 1   
    14    3   13 1   
    15    6   14 1   
    16    7   15 1   
    17    8   16 1   
    18    9   17 1   
@<TRIPOS>SUBSTRUCTURE
     1 MOL         1 TEMP              0 ****  ****    0 ROOT
