@<TRIPOS>MOLECULE
ammonia
    4     3     1     0     0
SMALL
No Charge or Current Charge


@<TRIPOS>ATOM
      1 N1         -0.1805   -0.0257   -0.2080 n3        1 MOL     -1.010000
      2 H1         -0.6441    0.2643    0.6484 hn        1 MOL      0.336700
      3 H2          0.5323    0.6662   -0.4215 hn        1 MOL      0.336700
      4 H3          0.2923   -0.9049   -0.0189 hn        1 MOL      0.336700
@<TRIPOS>BOND
     1    1    2 1   
     2    1    3 1   
     3    1    4 1   
@<TRIPOS>SUBSTRUCTURE
     1 MOL         1 TEMP              0 ****  ****    0 ROOT
