@<TRIPOS>MOLECULE
pyridine-4-carbonitrile
   12    12     1     0     0
SMALL
No Charge or Current Charge


@<TRIPOS>ATOM
      1 C1          0.2223   -0.4231    0.9743 ca        1 MOL     -0.210700
      2 C2         -0.6352   -1.3308    1.5912 ca        1 MOL      0.393300
      3 N1         -0.4031   -1.8754    2.7872 nb        1 MOL     -0.646700
      4 C3          0.7180   -1.5232    3.4196 ca        1 MOL      0.393300
      5 C4          1.6493   -0.6260    2.9026 ca        1 MOL     -0.210700
      6 C5          1.3903   -0.0661    1.6504 ca        1 MOL      0.024000
      7 C6          2.3173    0.8693    1.0626 cg        1 MOL      0.225100
      8 N2          3.0609    1.6196    0.5911 n1        1 MOL     -0.343900
      9 H1         -0.0083   -0.0061   -0.0000 ha        1 MOL      0.156900
     10 H2         -1.5548   -1.6346    1.0979 h4        1 MOL      0.031300
     11 H3          0.8826   -1.9811    4.3915 h4        1 MOL      0.031300
     12 H4          2.5476   -0.3694    3.4536 ha        1 MOL      0.156900
@<TRIPOS>BOND
     1    1    6 ar  
     2    1    2 ar  
     3    2    3 ar  
     4    3    4 ar  
     5    4    5 ar  
     6    5    6 ar  
     7    6    7 1   
     8    7    8 3   
     9    1    9 1   
    10    2   10 1   
    11    4   11 1   
    12    5   12 1   
@<TRIPOS>SUBSTRUCTURE
     1 MOL         1 TEMP              0 ****  ****    0 ROOT
