@<TRIPOS>MOLECULE
isobutane
   14    13     1     0     0
SMALL
No Charge or Current Charge


@<TRIPOS>ATOM
      1 C1          0.6529   -0.3851   -0.7816 c3        1 MOL     -0.089600
      2 C2          0.1011   -0.0596   -2.1698 c3        1 MOL     -0.070500
      3 C3         -0.0726    1.4495   -2.3433 c3        1 MOL     -0.089600
      4 C4          1.0095   -0.6281   -3.2603 c3        1 MOL     -0.089600
      5 H1          0.7606   -1.4659   -0.6378 hc        1 MOL      0.032800
      6 H2          1.6424    0.0708   -0.6474 hc        1 MOL      0.032800
      7 H3         -0.0020   -0.0013    0.0085 hc        1 MOL      0.032800
      8 H4         -0.8870   -0.5319   -2.2656 hc        1 MOL      0.044300
      9 H5         -0.4887    1.6929   -3.3272 hc        1 MOL      0.032800
     10 H6          0.8960    1.9580   -2.2541 hc        1 MOL      0.032800
     11 H7         -0.7402    1.8652   -1.5804 hc        1 MOL      0.032800
     12 H8          0.6095   -0.4240   -4.2597 hc        1 MOL      0.032800
     13 H9          1.1271   -1.7125   -3.1570 hc        1 MOL      0.032800
     14 H10         2.0076   -0.1755   -3.1999 hc        1 MOL      0.032800
@<TRIPOS>BOND
     1    1    2 1   
     2    2    3 1   
     3    2    4 1   
     4    1    5 1   
     5    1    6 1   
     6    1    7 1   
     7    2    8 1   
     8    3    9 1   
     9    3   10 1   
    10    3   11 1   
    11    4   12 1   
    12    4   13 1   
    13    4   14 1   
@<TRIPOS>SUBSTRUCTURE
     1 MOL         1 TEMP              0 ****  ****    0 ROOT
