@<TRIPOS>MOLECULE
1,1,2,2-tetrachloroethylene
    6     5     1     0     0
SMALL
No Charge or Current Charge


@<TRIPOS>ATOM
      1 C1          0.2015    0.6387   -0.0290 c2        1 MOL      0.062900
      2 C2         -0.2015   -0.6387    0.0292 c2        1 MOL      0.062900
      3 Cl1         0.9056   -1.9522    0.0229 cl        1 MOL     -0.031500
      4 Cl2        -1.8608   -1.0752    0.1150 cl        1 MOL     -0.031500
      5 Cl3        -0.9056    1.9523   -0.0229 cl        1 MOL     -0.031500
      6 Cl4         1.8608    1.0753   -0.1150 cl        1 MOL     -0.031500
@<TRIPOS>BOND
     1    1    2 2   
     2    2    3 1   
     3    2    4 1   
     4    1    5 1   
     5    1    6 1   
@<TRIPOS>SUBSTRUCTURE
     1 MOL         1 TEMP              0 ****  ****    0 ROOT
