@<TRIPOS>MOLECULE
1-methylimidazole
   12    12     1     0     0
SMALL
No Charge or Current Charge


@<TRIPOS>ATOM
      1 C1          3.6263   -2.4075   -1.7070 c3        1 MOL      0.026000
      2 N1          2.3463   -1.9961   -1.1661 na        1 MOL     -0.210900
      3 C2          1.9362   -0.7077   -0.9191 cc        1 MOL     -0.263100
      4 C3          0.6661   -0.8169   -0.4109 cd        1 MOL      0.293100
      5 N2          0.2883   -2.1335   -0.3398 nd        1 MOL     -0.668800
      6 C4          1.3163   -2.8076   -0.7987 cc        1 MOL      0.389800
      7 H1          3.7821   -1.9668   -2.6951 h1        1 MOL      0.052700
      8 H2          4.4386   -2.1048   -1.0410 h1        1 MOL      0.052700
      9 H3          3.6326   -3.4950   -1.8005 h1        1 MOL      0.052700
     10 H4          2.5718    0.1413   -1.1243 h4        1 MOL      0.174600
     11 H5          0.0052   -0.0227   -0.0938 h4        1 MOL      0.042200
     12 H6          1.3799   -3.8844   -0.8917 h5        1 MOL      0.059100
@<TRIPOS>BOND
     1    1    2 1   
     2    2    6 1   
     3    2    3 1   
     4    3    4 2   
     5    4    5 1   
     6    5    6 2   
     7    1    7 1   
     8    1    8 1   
     9    1    9 1   
    10    3   10 1   
    11    4   11 1   
    12    6   12 1   
@<TRIPOS>SUBSTRUCTURE
     1 MOL         1 TEMP              0 ****  ****    0 ROOT
