@<TRIPOS>MOLECULE
4-methyl-1H-imidazole
   12    12     1     0     0
SMALL
No Charge or Current Charge


@<TRIPOS>ATOM
      1 C1         -0.1920    0.2855    0.1297 c3        1 MOL     -0.113700
      2 C2          0.6957   -0.8077   -0.3714 cc        1 MOL      0.305000
      3 C3          1.9438   -0.7127   -0.9337 cd        1 MOL     -0.257900
      4 N1          2.3199   -2.0071   -1.2186 na        1 MOL     -0.325800
      5 C4          1.2999   -2.8156   -0.8227 cd        1 MOL      0.388900
      6 N2          0.3091   -2.1283   -0.3097 nc        1 MOL     -0.668300
      7 H1         -0.4123    0.1458    1.1926 hc        1 MOL      0.046100
      8 H2          0.2792    1.2637   -0.0007 hc        1 MOL      0.046100
      9 H3         -1.1447    0.2851   -0.4089 hc        1 MOL      0.046100
     10 H4          2.5784    0.1334   -1.1500 h4        1 MOL      0.175700
     11 H5          3.1880   -2.3008   -1.6410 hn        1 MOL      0.298600
     12 H6          1.3365   -3.8908   -0.9333 h5        1 MOL      0.059100
@<TRIPOS>BOND
     1    1    2 1   
     2    2    6 1   
     3    2    3 2   
     4    3    4 1   
     5    4    5 1   
     6    5    6 2   
     7    1    7 1   
     8    1    8 1   
     9    1    9 1   
    10    3   10 1   
    11    4   11 1   
    12    5   12 1   
@<TRIPOS>SUBSTRUCTURE
     1 MOL         1 TEMP              0 ****  ****    0 ROOT
