@<TRIPOS>MOLECULE
carbon
    5     4     1     0     0
SMALL
No Charge or Current Charge


@<TRIPOS>ATOM
      1 C1         -0.0001   -0.0004   -0.0002 c3        1 MOL      0.324300
      2 Cl1         1.6107    0.6979    0.2636 cl        1 MOL     -0.081100
      3 Cl2         0.1217   -1.7706   -0.0358 cl        1 MOL     -0.081100
      4 Cl3        -0.6502    0.5812   -1.5459 cl        1 MOL     -0.081100
      5 Cl4        -1.0820    0.4920    1.3184 cl        1 MOL     -0.081100
@<TRIPOS>BOND
     1    1    2 1   
     2    1    3 1   
     3    1    4 1   
     4    1    5 1   
@<TRIPOS>SUBSTRUCTURE
     1 MOL         1 TEMP              0 ****  ****    0 ROOT
