@<TRIPOS>MOLECULE
(2S)-1,1,1-trifluoropropan-2-ol
   12    11     1     0     0
SMALL
No Charge or Current Charge


@<TRIPOS>ATOM
      1 C1         -0.7923    0.6101    0.8368 c3        1 MOL     -0.141200
      2 C2         -0.2438   -0.1897   -0.3362 c3        1 MOL      0.111000
      3 H1         -0.9677   -0.9513   -0.6607 h1        1 MOL      0.071900
      4 C3         -0.0172    0.7018   -1.5481 c3        1 MOL      0.634500
      5 F1          0.8347    1.7023   -1.2890 f         1 MOL     -0.232700
      6 F2          0.4659    0.0125   -2.5880 f         1 MOL     -0.232700
      7 F3         -1.1829    1.2550   -1.9384 f         1 MOL     -0.232700
      8 O1          1.0121   -0.7675   -0.0641 oh        1 MOL     -0.584400
      9 H2         -0.0730    1.3769    1.1365 hc        1 MOL      0.062500
     10 H3         -0.9672   -0.0578    1.6864 hc        1 MOL      0.062500
     11 H4         -1.7425    1.0861    0.5806 hc        1 MOL      0.062500
     12 H5          0.9407   -1.3254    0.7225 ho        1 MOL      0.418700
@<TRIPOS>BOND
     1    1    2 1   
     2    2    3 1   
     3    2    4 1   
     4    4    5 1   
     5    4    6 1   
     6    4    7 1   
     7    2    8 1   
     8    1    9 1   
     9    1   10 1   
    10    1   11 1   
    11    8   12 1   
@<TRIPOS>SUBSTRUCTURE
     1 MOL         1 TEMP              0 ****  ****    0 ROOT
