@<TRIPOS>MOLECULE
diiodomethane
    5     4     1     0     0
SMALL
No Charge or Current Charge


@<TRIPOS>ATOM
      1 C1          0.1995   -0.0264    0.0586 c3        1 MOL      0.152800
      2 I1         -0.4585   -0.3883   -1.9425 i         1 MOL     -0.179400
      3 I2         -1.3129    0.6228    1.4222 i         1 MOL     -0.179400
      4 H1          0.9621    0.7538    0.0178 h2        1 MOL      0.102900
      5 H2          0.6098   -0.9618    0.4439 h2        1 MOL      0.102900
@<TRIPOS>BOND
     1    1    2 1   
     2    1    3 1   
     3    1    4 1   
     4    1    5 1   
@<TRIPOS>SUBSTRUCTURE
     1 MOL         1 TEMP              0 ****  ****    0 ROOT
