@<TRIPOS>MOLECULE
1,4-dioxane
   14    14     1     0     0
SMALL
No Charge or Current Charge


@<TRIPOS>ATOM
      1 C1          0.2200   -0.9150   -1.0242 c3        1 MOL      0.090500
      2 C2         -0.0995    0.5505   -1.2734 c3        1 MOL      0.090500
      3 O1          0.3579    1.3468   -0.1948 os        1 MOL     -0.413200
      4 C3         -0.2200    0.9150    1.0242 c3        1 MOL      0.090500
      5 C4          0.0996   -0.5505    1.2734 c3        1 MOL      0.090500
      6 O2         -0.3578   -1.3468    0.1949 os        1 MOL     -0.413200
      7 H1          1.3123   -1.0547   -0.9862 h1        1 MOL      0.058000
      8 H2         -0.1951   -1.5486   -1.8125 h1        1 MOL      0.058000
      9 H3          0.4040    0.9166   -2.1721 h1        1 MOL      0.058000
     10 H4         -1.1876    0.6775   -1.3920 h1        1 MOL      0.058000
     11 H5          0.1952    1.5486    1.8125 h1        1 MOL      0.058000
     12 H6         -1.3123    1.0547    0.9862 h1        1 MOL      0.058000
     13 H7          1.1877   -0.6775    1.3920 h1        1 MOL      0.058000
     14 H8         -0.4040   -0.9166    2.1721 h1        1 MOL      0.058000
@<TRIPOS>BOND
     1    1    6 1   
     2    1    2 1   
     3    2    3 1   
     4    3    4 1   
     5    4    5 1   
     6    5    6 1   
     7    1    7 1   
     8    1    8 1   
     9    2    9 1   
    10    2   10 1   
    11    4   11 1   
    12    4   12 1   
    13    5   13 1   
    14    5   14 1   
@<TRIPOS>SUBSTRUCTURE
     1 MOL         1 TEMP              0 ****  ****    0 ROOT
