@<TRIPOS>MOLECULE
azetidine
   11    11     1     0     0
SMALL
No Charge or Current Charge


@<TRIPOS>ATOM
      1 C1          0.8704   -0.4873   -0.4523 cy        1 MOL     -0.115700
      2 C2          1.7843    0.4681   -1.2470 cy        1 MOL      0.124700
      3 N1          1.0414    0.0982   -2.4693 n3        1 MOL     -0.788300
      4 C3          0.5840   -1.1463   -1.8174 cy        1 MOL      0.124700
      5 H1         -0.0079    0.0247   -0.0534 hc        1 MOL      0.056000
      6 H2          1.3292   -1.1025    0.3234 hc        1 MOL      0.056000
      7 H3          1.7569    1.5341   -1.0017 h1        1 MOL      0.049500
      8 H4          2.8283    0.1206   -1.2408 h1        1 MOL      0.049500
      9 H5          1.5995   -0.0193   -3.3112 hn        1 MOL      0.344600
     10 H6         -0.4469   -1.4301   -2.0490 h1        1 MOL      0.049500
     11 H7          1.2461   -2.0075   -1.9927 h1        1 MOL      0.049500
@<TRIPOS>BOND
     1    1    4 1   
     2    1    2 1   
     3    2    3 1   
     4    3    4 1   
     5    1    5 1   
     6    1    6 1   
     7    2    7 1   
     8    2    8 1   
     9    3    9 1   
    10    4   10 1   
    11    4   11 1   
@<TRIPOS>SUBSTRUCTURE
     1 MOL         1 TEMP              0 ****  ****    0 ROOT
