@<TRIPOS>MOLECULE
tetrafluoromethane
    5     4     1     0     0
SMALL
No Charge or Current Charge


@<TRIPOS>ATOM
      1 C1         -0.0001    0.0002    0.0001 c3        1 MOL      0.862200
      2 F1          0.9267    0.8381    0.4333 f         1 MOL     -0.215500
      3 F2          0.4817   -1.2314    0.0077 f         1 MOL     -0.215500
      4 F3         -0.3504    0.3282   -1.2324 f         1 MOL     -0.215500
      5 F4         -1.0579    0.0649    0.7913 f         1 MOL     -0.215500
@<TRIPOS>BOND
     1    1    2 1   
     2    1    3 1   
     3    1    4 1   
     4    1    5 1   
@<TRIPOS>SUBSTRUCTURE
     1 MOL         1 TEMP              0 ****  ****    0 ROOT
