@<TRIPOS>MOLECULE
pyrrolidine
   14    14     1     0     0
SMALL
No Charge or Current Charge


@<TRIPOS>ATOM
      1 C1          0.2714    0.4740    1.1741 c3        1 MOL     -0.085700
      2 C2          0.0104    1.2889   -0.1205 c3        1 MOL     -0.085700
      3 C3         -0.4426    0.2362   -1.1461 c3        1 MOL      0.150400
      4 N1          0.2044   -0.9812   -0.6606 n3        1 MOL     -0.812300
      5 C4         -0.0469   -0.9785    0.7794 c3        1 MOL      0.150400
      6 H1         -0.3462    0.8081    2.0122 hc        1 MOL      0.046700
      7 H2          1.3182    0.5623    1.4763 hc        1 MOL      0.046700
      8 H3         -0.7439    2.0680    0.0182 hc        1 MOL      0.046700
      9 H4          0.9305    1.7726   -0.4587 hc        1 MOL      0.046700
     10 H5         -1.5448    0.1555   -1.1363 h1        1 MOL      0.034500
     11 H6         -0.1240    0.4653   -2.1670 h1        1 MOL      0.034500
     12 H7         -0.1534   -1.8177   -1.1147 hn        1 MOL      0.358100
     13 H8         -1.1009   -1.2080    1.0194 h1        1 MOL      0.034500
     14 H9          0.5881   -1.7107    1.2862 h1        1 MOL      0.034500
@<TRIPOS>BOND
     1    1    5 1   
     2    1    2 1   
     3    2    3 1   
     4    3    4 1   
     5    4    5 1   
     6    1    6 1   
     7    1    7 1   
     8    2    8 1   
     9    2    9 1   
    10    3   10 1   
    11    3   11 1   
    12    4   12 1   
    13    5   13 1   
    14    5   14 1   
@<TRIPOS>SUBSTRUCTURE
     1 MOL         1 TEMP              0 ****  ****    0 ROOT
