@<TRIPOS>MOLECULE
1,2,4,5-tetrachlorobenzene
   12    12     1     0     0
SMALL
No Charge or Current Charge


@<TRIPOS>ATOM
      1 C1          1.8850   -1.0361   -0.1060 ca        1 MOL     -0.108100
      2 C2          2.9207   -1.6305    0.6069 ca        1 MOL      0.022400
      3 C3          2.8779   -1.6520    2.0033 ca        1 MOL      0.022400
      4 C4          1.7999   -1.0787    2.6693 ca        1 MOL     -0.108000
      5 C5          0.7642   -0.4842    1.9564 ca        1 MOL      0.022400
      6 C6          0.8070   -0.4628    0.5600 ca        1 MOL      0.022400
      7 Cl1        -0.4570    0.2645   -0.3697 cl        1 MOL     -0.053300
      8 Cl2        -0.5550    0.2155    2.8288 cl        1 MOL     -0.053300
      9 Cl3         4.1419   -2.3794    2.9330 cl        1 MOL     -0.053300
     10 Cl4         4.2400   -2.3303   -0.2654 cl        1 MOL     -0.053300
     11 H1          1.9182   -1.0195   -1.1897 ha        1 MOL      0.169800
     12 H2          1.7667   -1.0953    3.7530 ha        1 MOL      0.169800
@<TRIPOS>BOND
     1    1    6 ar  
     2    1    2 ar  
     3    2    3 ar  
     4    3    4 ar  
     5    4    5 ar  
     6    5    6 ar  
     7    6    7 1   
     8    5    8 1   
     9    3    9 1   
    10    2   10 1   
    11    1   11 1   
    12    4   12 1   
@<TRIPOS>SUBSTRUCTURE
     1 MOL         1 TEMP              0 ****  ****    0 ROOT
