@<TRIPOS>MOLECULE
1,3,5-triazinane-2,4,6-trione
   12    12     1     0     0
SMALL
No Charge or Current Charge


@<TRIPOS>ATOM
      1 C1         -0.6635    1.1635    0.5051 c         1 MOL      0.821800
      2 O1         -1.2210    2.1445    0.9317 o         1 MOL     -0.605200
      3 N1         -0.4795    0.0074    1.2493 n         1 MOL     -0.591800
      4 C2          0.1506   -1.1556    0.8312 c         1 MOL      0.821900
      5 O2          0.2765   -2.1302    1.5309 o         1 MOL     -0.605200
      6 N2          0.6200   -1.0878   -0.4724 n         1 MOL     -0.591800
      7 C3          0.5134   -0.0078   -1.3362 c         1 MOL      0.821900
      8 O3          0.9450   -0.0145   -2.4627 o         1 MOL     -0.605200
      9 N3         -0.1401    1.0806   -0.7770 n         1 MOL     -0.591800
     10 H1         -0.8430    0.0132    2.1959 hn        1 MOL      0.375200
     11 H2          1.0893   -1.9123   -0.8301 hn        1 MOL      0.375200
     12 H3         -0.2465    1.8995   -1.3656 hn        1 MOL      0.375200
@<TRIPOS>BOND
     1    1    9 1   
     2    1    2 2   
     3    1    3 1   
     4    3    4 1   
     5    4    5 2   
     6    4    6 1   
     7    6    7 1   
     8    7    8 2   
     9    7    9 1   
    10    3   10 1   
    11    6   11 1   
    12    9   12 1   
@<TRIPOS>SUBSTRUCTURE
     1 MOL         1 TEMP              0 ****  ****    0 ROOT
