@<TRIPOS>MOLECULE
piperidine
   17    17     1     0     0
SMALL
No Charge or Current Charge


@<TRIPOS>ATOM
      1 C1          0.5705    0.0379   -1.3654 c3        1 MOL     -0.076900
      2 C2          0.4821    1.2918   -0.4909 c3        1 MOL     -0.076300
      3 C3         -0.6725    1.1683    0.5013 c3        1 MOL      0.160300
      4 N1         -0.4915   -0.0329    1.3117 n3        1 MOL     -0.813700
      5 C4         -0.5209   -1.2448    0.4976 c3        1 MOL      0.160300
      6 C5          0.6399   -1.2199   -0.4946 c3        1 MOL     -0.076300
      7 H1          1.4379    0.0934   -2.0330 hc        1 MOL      0.038700
      8 H2         -0.3218   -0.0173   -2.0064 hc        1 MOL      0.038700
      9 H3          1.4149    1.4139    0.0741 hc        1 MOL      0.045900
     10 H4          0.3467    2.1863   -1.1099 hc        1 MOL      0.045900
     11 H5         -0.7003    2.0369    1.1672 h1        1 MOL      0.025800
     12 H6         -1.6267    1.1454   -0.0620 h1        1 MOL      0.025800
     13 H7         -1.2045   -0.0788    2.0344 hn        1 MOL      0.358700
     14 H8         -0.4397   -2.1122    1.1609 h1        1 MOL      0.025800
     15 H9         -1.4705   -1.3398   -0.0658 h1        1 MOL      0.025800
     16 H10         1.5807   -1.2259    0.0702 hc        1 MOL      0.045900
     17 H11         0.6175   -2.1224   -1.1163 hc        1 MOL      0.045900
@<TRIPOS>BOND
     1    1    6 1   
     2    1    2 1   
     3    2    3 1   
     4    3    4 1   
     5    4    5 1   
     6    5    6 1   
     7    1    7 1   
     8    1    8 1   
     9    2    9 1   
    10    2   10 1   
    11    3   11 1   
    12    3   12 1   
    13    4   13 1   
    14    5   14 1   
    15    5   15 1   
    16    6   16 1   
    17    6   17 1   
@<TRIPOS>SUBSTRUCTURE
     1 MOL         1 TEMP              0 ****  ****    0 ROOT
