@<TRIPOS>MOLECULE
chlorobenzene
   12    12     1     0     0
SMALL
No Charge or Current Charge


@<TRIPOS>ATOM
      1 C1          1.8853   -1.0363   -0.1179 ca        1 MOL     -0.129400
      2 C2          2.9192   -1.6297    0.6043 ca        1 MOL     -0.121800
      3 C3          2.8834   -1.6545    1.9972 ca        1 MOL     -0.124500
      4 C4          1.8005   -1.0781    2.6540 ca        1 MOL      0.017700
      5 C5          0.7592   -0.4812    1.9499 ca        1 MOL     -0.124500
      6 C6          0.8086   -0.4640    0.5574 ca        1 MOL     -0.121800
      7 Cl1         1.7471   -1.1045    4.3989 cl        1 MOL     -0.097300
      8 H1          1.9185   -1.0200   -1.2029 ha        1 MOL      0.135300
      9 H2          3.7612   -2.0776    0.0850 ha        1 MOL      0.136700
     10 H3          3.6817   -2.1132    2.5715 ha        1 MOL      0.146500
     11 H4         -0.0732   -0.0393    2.4879 ha        1 MOL      0.146500
     12 H5         -0.0006    0.0001    0.0013 ha        1 MOL      0.136700
@<TRIPOS>BOND
     1    1    6 ar  
     2    1    2 ar  
     3    2    3 ar  
     4    3    4 ar  
     5    4    5 ar  
     6    5    6 ar  
     7    4    7 1   
     8    1    8 1   
     9    2    9 1   
    10    3   10 1   
    11    5   11 1   
    12    6   12 1   
@<TRIPOS>SUBSTRUCTURE
     1 MOL         1 TEMP              0 ****  ****    0 ROOT
