@<TRIPOS>MOLECULE
bromobenzene
   12    12     1     0     0
SMALL
No Charge or Current Charge


@<TRIPOS>ATOM
      1 C1          1.8853   -1.0362   -0.1175 ca        1 MOL     -0.117300
      2 C2          2.9173   -1.6288    0.6073 ca        1 MOL     -0.130300
      3 C3          2.8816   -1.6537    1.9999 ca        1 MOL     -0.103500
      4 C4          1.8003   -1.0782    2.6594 ca        1 MOL     -0.026100
      5 C5          0.7608   -0.4823    1.9527 ca        1 MOL     -0.103500
      6 C6          0.8103   -0.4650    0.5604 ca        1 MOL     -0.130300
      7 Br1         1.7424   -1.1073    4.5422 br        1 MOL     -0.091100
      8 H1          1.9186   -1.0198   -1.2024 ha        1 MOL      0.135300
      9 H2          3.7604   -2.0773    0.0902 ha        1 MOL      0.137400
     10 H3          3.6826   -2.1139    2.5689 ha        1 MOL      0.146000
     11 H4         -0.0741   -0.0390    2.4853 ha        1 MOL      0.146000
     12 H5         -0.0000   -0.0003    0.0065 ha        1 MOL      0.137400
@<TRIPOS>BOND
     1    1    6 ar  
     2    1    2 ar  
     3    2    3 ar  
     4    3    4 ar  
     5    4    5 ar  
     6    5    6 ar  
     7    4    7 1   
     8    1    8 1   
     9    2    9 1   
    10    3   10 1   
    11    5   11 1   
    12    6   12 1   
@<TRIPOS>SUBSTRUCTURE
     1 MOL         1 TEMP              0 ****  ****    0 ROOT
