@<TRIPOS>MOLECULE
hydrazine
    6     5     1     0     0
SMALL
No Charge or Current Charge


@<TRIPOS>ATOM
      1 N1         -0.8478    0.6194   -0.1749 n3        1 MOL     -0.670700
      2 N2         -1.9396   -0.2937   -0.2284 n3        1 MOL     -0.670700
      3 H1         -0.8001    1.1189    0.7107 hn        1 MOL      0.335300
      4 H2          0.0072    0.0853   -0.2885 hn        1 MOL      0.335300
      5 H3         -2.7329    0.1967   -0.6278 hn        1 MOL      0.335300
      6 H4         -2.2046   -0.6390    0.6917 hn        1 MOL      0.335300
@<TRIPOS>BOND
     1    1    2 1   
     2    1    3 1   
     3    1    4 1   
     4    2    5 1   
     5    2    6 1   
@<TRIPOS>SUBSTRUCTURE
     1 MOL         1 TEMP              0 ****  ****    0 ROOT
