@<TRIPOS>MOLECULE
methoxymethane
    9     8     1     0     0
SMALL
No Charge or Current Charge


@<TRIPOS>ATOM
      1 C1         -0.6018   -0.5168    0.7507 c3        1 MOL      0.111900
      2 O1          0.0395   -0.5046    2.0008 os        1 MOL     -0.418200
      3 C2          1.2793   -1.1646    1.9628 c3        1 MOL      0.112000
      4 H1         -1.5503    0.0110    0.8643 h1        1 MOL      0.032400
      5 H2         -0.7979   -1.5465    0.4156 h1        1 MOL      0.032400
      6 H3          0.0072   -0.0084   -0.0120 h1        1 MOL      0.032400
      7 H4          1.7095   -1.1105    2.9643 h1        1 MOL      0.032400
      8 H5          1.9632   -0.6826    1.2479 h1        1 MOL      0.032400
      9 H6          1.1575   -2.2203    1.6767 h1        1 MOL      0.032400
@<TRIPOS>BOND
     1    1    2 1   
     2    2    3 1   
     3    1    4 1   
     4    1    5 1   
     5    1    6 1   
     6    3    7 1   
     7    3    8 1   
     8    3    9 1   
@<TRIPOS>SUBSTRUCTURE
     1 MOL         1 TEMP              0 ****  ****    0 ROOT
