@<TRIPOS>MOLECULE
bromo(trifluoro)methane
    5     4     1     0     0
SMALL
No Charge or Current Charge


@<TRIPOS>ATOM
      1 C1          0.0469   -0.0307   -0.0888 c3        1 MOL      0.707300
      2 F1          1.2025    0.6037   -0.2461 f         1 MOL     -0.207100
      3 F2          0.2842   -1.3368   -0.0591 f         1 MOL     -0.207100
      4 F3         -0.7249    0.2337   -1.1363 f         1 MOL     -0.207100
      5 Br1        -0.8086    0.5300    1.5303 br        1 MOL     -0.085900
@<TRIPOS>BOND
     1    1    2 1   
     2    1    3 1   
     3    1    4 1   
     4    1    5 1   
@<TRIPOS>SUBSTRUCTURE
     1 MOL         1 TEMP              0 ****  ****    0 ROOT
