@<TRIPOS>MOLECULE
imidazole
    9     9     1     0     0
SMALL
No Charge or Current Charge


@<TRIPOS>ATOM
      1 C1          0.6575   -0.7761   -0.3644 cc        1 MOL     -0.262100
      2 C2          1.9485   -0.7684   -0.8249 cd        1 MOL      0.290700
      3 N1          2.3445   -2.0358   -1.1780 nd        1 MOL     -0.665100
      4 C3          1.3100   -2.8030   -0.9357 cc        1 MOL      0.380800
      5 N2          0.2593   -2.0904   -0.4414 na        1 MOL     -0.320800
      6 H1          0.0059    0.0037   -0.0013 h4        1 MOL      0.176900
      7 H2          2.6152    0.0763   -0.9224 h4        1 MOL      0.041400
      8 H3          1.2610   -3.8712   -1.0965 h5        1 MOL      0.059700
      9 H4         -0.6432   -2.4588   -0.1798 hn        1 MOL      0.298400
@<TRIPOS>BOND
     1    1    5 1   
     2    1    2 2   
     3    2    3 1   
     4    3    4 2   
     5    4    5 1   
     6    1    6 1   
     7    2    7 1   
     8    4    8 1   
     9    5    9 1   
@<TRIPOS>SUBSTRUCTURE
     1 MOL         1 TEMP              0 ****  ****    0 ROOT
