@<TRIPOS>MOLECULE
2-bromo-2-methyl-propane
   14    13     1     0     0
SMALL
No Charge or Current Charge


@<TRIPOS>ATOM
      1 C1          0.2712   -1.1149    0.9050 c3        1 MOL     -0.093600
      2 C2          0.0161    0.2202    0.2232 c3        1 MOL      0.052200
      3 C3         -1.3808    0.2974   -0.3726 c3        1 MOL     -0.093600
      4 C4          1.0905    0.5503   -0.8010 c3        1 MOL     -0.093600
      5 Br1         0.1174    1.6132    1.6330 br        1 MOL     -0.206600
      6 H1          1.2601   -1.1337    1.3711 hc        1 MOL      0.048400
      7 H2         -0.4806   -1.3115    1.6743 hc        1 MOL      0.048400
      8 H3          0.2225   -1.9160    0.1561 hc        1 MOL      0.048400
      9 H4         -1.5658    1.2823   -0.8101 hc        1 MOL      0.048400
     10 H5         -1.4771   -0.4595   -1.1616 hc        1 MOL      0.048400
     11 H6         -2.1420    0.1055    0.3886 hc        1 MOL      0.048400
     12 H7          0.9197    1.5353   -1.2440 hc        1 MOL      0.048400
     13 H8          1.0673   -0.2014   -1.6005 hc        1 MOL      0.048400
     14 H9          2.0834    0.5414   -0.3433 hc        1 MOL      0.048400
@<TRIPOS>BOND
     1    1    2 1   
     2    2    3 1   
     3    2    4 1   
     4    2    5 1   
     5    1    6 1   
     6    1    7 1   
     7    1    8 1   
     8    3    9 1   
     9    3   10 1   
    10    3   11 1   
    11    4   12 1   
    12    4   13 1   
    13    4   14 1   
@<TRIPOS>SUBSTRUCTURE
     1 MOL         1 TEMP              0 ****  ****    0 ROOT
