@<TRIPOS>MOLECULE
propan-2-ol
   12    11     1     0     0
SMALL
No Charge or Current Charge


@<TRIPOS>ATOM
      1 C1          1.0781    0.0328    0.1885 c3        1 MOL     -0.111100
      2 C2          1.3497    0.8967    1.4144 c3        1 MOL      0.138300
      3 C3          2.8351    1.0428    1.6924 c3        1 MOL     -0.111100
      4 O1          0.8485    2.2172    1.2304 oh        1 MOL     -0.601600
      5 H1          0.0025   -0.0523   -0.0069 hc        1 MOL      0.043300
      6 H2          1.5538    0.4769   -0.6925 hc        1 MOL      0.043300
      7 H3          1.4730   -0.9790    0.3286 hc        1 MOL      0.043300
      8 H4          0.8637    0.4428    2.2925 h1        1 MOL      0.028400
      9 H5          2.9976    1.6870    2.5608 hc        1 MOL      0.043300
     10 H6          3.3315    1.4969    0.8282 hc        1 MOL      0.043300
     11 H7          3.2897    0.0664    1.8872 hc        1 MOL      0.043300
     12 H8         -0.0994    2.1708    1.0428 ho        1 MOL      0.397100
@<TRIPOS>BOND
     1    1    2 1   
     2    2    3 1   
     3    2    4 1   
     4    1    5 1   
     5    1    6 1   
     6    1    7 1   
     7    2    8 1   
     8    3    9 1   
     9    3   10 1   
    10    3   11 1   
    11    4   12 1   
@<TRIPOS>SUBSTRUCTURE
     1 MOL         1 TEMP              0 ****  ****    0 ROOT
