@<TRIPOS>MOLECULE
5-(trifluoromethyl)-1H-pyrimidine-2,4-dione
   15    15     1     0     0
SMALL
No Charge or Current Charge


@<TRIPOS>ATOM
      1 C1          1.1538    1.5047    2.5753 cc        1 MOL      0.117900
      2 C2          0.7925    0.3646    1.9528 cd        1 MOL     -0.367400
      3 C3          1.5241   -0.8790    2.2180 c         1 MOL      0.732100
      4 O1          1.2904   -1.9567    1.7200 o         1 MOL     -0.575200
      5 N1          2.5699   -0.7198    3.1401 n         1 MOL     -0.584300
      6 C4          2.9643    0.4299    3.7933 c         1 MOL      0.805000
      7 O2          3.8818    0.4882    4.5792 o         1 MOL     -0.612900
      8 N2          2.1934    1.5419    3.4580 n         1 MOL     -0.459500
      9 C5         -0.3480    0.3290    0.9860 c3        1 MOL      0.725100
     10 F1         -0.9060    1.5523    0.8606 f         1 MOL     -0.229200
     11 F2          0.0407   -0.0544   -0.2365 f         1 MOL     -0.229200
     12 F3         -1.3159   -0.5075    1.3806 f         1 MOL     -0.229200
     13 H1          0.6372    2.4432    2.4048 h4        1 MOL      0.179400
     14 H2          3.1066   -1.5548    3.3564 hn        1 MOL      0.362200
     15 H3          2.4581    2.4021    3.9210 hn        1 MOL      0.365300
@<TRIPOS>BOND
     1    1    8 1   
     2    1    2 2   
     3    2    3 1   
     4    3    4 2   
     5    3    5 1   
     6    5    6 1   
     7    6    7 2   
     8    6    8 1   
     9    2    9 1   
    10    9   10 1   
    11    9   11 1   
    12    9   12 1   
    13    1   13 1   
    14    5   14 1   
    15    8   15 1   
@<TRIPOS>SUBSTRUCTURE
     1 MOL         1 TEMP              0 ****  ****    0 ROOT
