@<TRIPOS>MOLECULE
bromoform
    5     4     1     0     0
SMALL
No Charge or Current Charge


@<TRIPOS>ATOM
      1 C1         -0.1328    0.0179   -0.0562 c3        1 MOL      0.054200
      2 Br1         0.1992   -1.8676    0.1336 br        1 MOL     -0.062200
      3 Br2        -0.0811    0.8885    1.6580 br        1 MOL     -0.062200
      4 Br3         1.1390    0.8130   -1.2608 br        1 MOL     -0.062200
      5 H1         -1.1241    0.1481   -0.4746 h3        1 MOL      0.132500
@<TRIPOS>BOND
     1    1    2 1   
     2    1    3 1   
     3    1    4 1   
     4    1    5 1   
@<TRIPOS>SUBSTRUCTURE
     1 MOL         1 TEMP              0 ****  ****    0 ROOT
