@<TRIPOS>MOLECULE
1,1,2-trichloroethylene
    6     5     1     0     0
SMALL
No Charge or Current Charge


@<TRIPOS>ATOM
      1 C1         -0.2475    0.3126    0.6003 c2        1 MOL     -0.068700
      2 C2          0.2250   -0.3423   -0.4588 c2        1 MOL      0.062900
      3 Cl1         0.7610   -1.9785   -0.3008 cl        1 MOL     -0.051500
      4 Cl2         0.3512    0.3342   -2.0313 cl        1 MOL     -0.051500
      5 Cl3        -0.8025    1.9371    0.5477 cl        1 MOL     -0.065500
      6 H1         -0.3035   -0.1652    1.5704 h4        1 MOL      0.174400
@<TRIPOS>BOND
     1    1    2 2   
     2    2    3 1   
     3    2    4 1   
     4    1    5 1   
     5    1    6 1   
@<TRIPOS>SUBSTRUCTURE
     1 MOL         1 TEMP              0 ****  ****    0 ROOT
