@<TRIPOS>MOLECULE
2-chloro-2-methyl-propane
   14    13     1     0     0
SMALL
No Charge or Current Charge


@<TRIPOS>ATOM
      1 C1          0.7763    0.2119   -0.7395 c3        1 MOL     -0.099000
      2 C2          0.5629    1.5576   -1.4204 c3        1 MOL      0.080000
      3 C3         -0.8125    1.6414   -2.0700 c3        1 MOL     -0.099000
      4 C4          1.6707    1.8574   -2.4222 c3        1 MOL     -0.099000
      5 Cl1         0.6351    2.8457   -0.1216 cl        1 MOL     -0.214900
      6 H1          1.7498    0.1758   -0.2425 hc        1 MOL      0.048000
      7 H2         -0.0030    0.0235    0.0044 hc        1 MOL      0.048000
      8 H3          0.7395   -0.5843   -1.4927 hc        1 MOL      0.048000
      9 H4         -0.9713    2.6243   -2.5227 hc        1 MOL      0.048000
     10 H5         -0.8882    0.8794   -2.8549 hc        1 MOL      0.048000
     11 H6         -1.6031    1.4641   -1.3354 hc        1 MOL      0.048000
     12 H7          1.5327    2.8440   -2.8736 hc        1 MOL      0.048000
     13 H8          1.6511    1.1036   -3.2183 hc        1 MOL      0.048000
     14 H9          2.6521    1.8287   -1.9402 hc        1 MOL      0.048000
@<TRIPOS>BOND
     1    1    2 1   
     2    2    3 1   
     3    2    4 1   
     4    2    5 1   
     5    1    6 1   
     6    1    7 1   
     7    1    8 1   
     8    3    9 1   
     9    3   10 1   
    10    3   11 1   
    11    4   12 1   
    12    4   13 1   
    13    4   14 1   
@<TRIPOS>SUBSTRUCTURE
     1 MOL         1 TEMP              0 ****  ****    0 ROOT
