@<TRIPOS>MOLECULE
4-chlorophenol
   13    13     1     0     0
SMALL
No Charge or Current Charge


@<TRIPOS>ATOM
      1 C1          1.8756   -1.0312   -0.1037 ca        1 MOL     -0.178400
      2 C2          2.9116   -1.6252    0.6067 ca        1 MOL     -0.087400
      3 C3          2.8702   -1.6470    1.9986 ca        1 MOL     -0.019900
      4 C4          1.8033   -1.0806    2.6855 ca        1 MOL     -0.087400
      5 C5          0.7654   -0.4854    1.9722 ca        1 MOL     -0.178400
      6 C6          0.8007   -0.4603    0.5784 ca        1 MOL      0.126300
      7 O1         -0.1828    0.1062   -0.1757 oh        1 MOL     -0.493600
      8 Cl1         4.1729   -2.3939    2.8902 cl        1 MOL     -0.094900
      9 H1          1.8848   -1.0016   -1.1884 ha        1 MOL      0.146700
     10 H2          3.7515   -2.0717    0.0843 ha        1 MOL      0.149300
     11 H3          1.7826   -1.1039    3.7702 ha        1 MOL      0.149300
     12 H4         -0.0714   -0.0411    2.5065 ha        1 MOL      0.146700
     13 H5         -0.8745    0.4694    0.3952 ho        1 MOL      0.421500
@<TRIPOS>BOND
     1    1    6 ar  
     2    1    2 ar  
     3    2    3 ar  
     4    3    4 ar  
     5    4    5 ar  
     6    5    6 ar  
     7    6    7 1   
     8    3    8 1   
     9    1    9 1   
    10    2   10 1   
    11    4   11 1   
    12    5   12 1   
    13    7   13 1   
@<TRIPOS>SUBSTRUCTURE
     1 MOL         1 TEMP              0 ****  ****    0 ROOT
