@<TRIPOS>MOLECULE
1,2,4-trichlorobenzene
   12    12     1     0     0
SMALL
No Charge or Current Charge


@<TRIPOS>ATOM
      1 C1          1.8865   -1.0375   -0.1220 ca        1 MOL     -0.117800
      2 C2          2.9146   -1.6282    0.6026 ca        1 MOL     -0.109400
      3 C3          2.8792   -1.6535    1.9954 ca        1 MOL      0.015800
      4 C4          1.7979   -1.0781    2.6678 ca        1 MOL      0.025400
      5 C5          0.7621   -0.4832    1.9501 ca        1 MOL     -0.114200
      6 C6          0.8164   -0.4687    0.5622 ca        1 MOL      0.022800
      7 Cl1        -0.4775    0.2745   -0.3306 cl        1 MOL     -0.077400
      8 Cl2         1.7099   -1.0848    4.3975 cl        1 MOL     -0.062400
      9 Cl3         4.1800   -2.3991    2.8606 cl        1 MOL     -0.060900
     10 H1          1.9144   -1.0180   -1.2060 ha        1 MOL      0.155600
     11 H2          3.7589   -2.0778    0.0903 ha        1 MOL      0.156600
     12 H3         -0.0744   -0.0383    2.4780 ha        1 MOL      0.165900
@<TRIPOS>BOND
     1    1    6 ar  
     2    1    2 ar  
     3    2    3 ar  
     4    3    4 ar  
     5    4    5 ar  
     6    5    6 ar  
     7    6    7 1   
     8    4    8 1   
     9    3    9 1   
    10    1   10 1   
    11    2   11 1   
    12    5   12 1   
@<TRIPOS>SUBSTRUCTURE
     1 MOL         1 TEMP              0 ****  ****    0 ROOT
