@<TRIPOS>MOLECULE
1,4-dibromobenzene
   12    12     1     0     0
SMALL
No Charge or Current Charge


@<TRIPOS>ATOM
      1 C1          1.8876   -1.0377   -0.1140 ca        1 MOL     -0.104400
      2 C2          2.9211   -1.6308    0.6049 ca        1 MOL     -0.104400
      3 C3          2.8675   -1.6456    1.9946 ca        1 MOL     -0.016900
      4 C4          1.7972   -1.0773    2.6772 ca        1 MOL     -0.104400
      5 C5          0.7637   -0.4843    1.9583 ca        1 MOL     -0.104400
      6 C6          0.8173   -0.4695    0.5686 ca        1 MOL     -0.016900
      7 Br1        -0.5798    0.3334   -0.4036 br        1 MOL     -0.077900
      8 Br2         4.2649   -2.4480    2.9668 br        1 MOL     -0.077900
      9 H1          1.9155   -1.0182   -1.1984 ha        1 MOL      0.151700
     10 H2          3.7626   -2.0783    0.0866 ha        1 MOL      0.151700
     11 H3          1.7695   -1.0967    3.7616 ha        1 MOL      0.151700
     12 H4         -0.0777   -0.0366    2.4766 ha        1 MOL      0.151700
@<TRIPOS>BOND
     1    1    6 ar  
     2    1    2 ar  
     3    2    3 ar  
     4    3    4 ar  
     5    4    5 ar  
     6    5    6 ar  
     7    6    7 1   
     8    3    8 1   
     9    1    9 1   
    10    2   10 1   
    11    4   11 1   
    12    5   12 1   
@<TRIPOS>SUBSTRUCTURE
     1 MOL         1 TEMP              0 ****  ****    0 ROOT
