@<TRIPOS>MOLECULE
2-fluorophenol
   13    13     1     0     0
SMALL
No Charge or Current Charge


@<TRIPOS>ATOM
      1 C1          1.8864   -1.0375   -0.1051 ca        1 MOL     -0.107600
      2 C2          2.9281   -1.6346    0.6042 ca        1 MOL     -0.143500
      3 C3          2.8924   -1.6595    1.9988 ca        1 MOL     -0.122300
      4 C4          1.8128   -1.0846    2.6397 ca        1 MOL      0.035300
      5 C5          0.7608   -0.4825    1.9532 ca        1 MOL      0.098000
      6 C6          0.8061   -0.4631    0.5620 ca        1 MOL     -0.138600
      7 O1         -0.2882    0.0749    2.6098 oh        1 MOL     -0.489500
      8 F1          1.7324   -1.0835    3.9953 f         1 MOL     -0.147200
      9 H1          1.9120   -1.0169   -1.1901 ha        1 MOL      0.140100
     10 H2          3.7668   -2.0803    0.0797 ha        1 MOL      0.139300
     11 H3          3.6804   -2.1129    2.5912 ha        1 MOL      0.150100
     12 H4         -0.0125    0.0055    0.0251 ha        1 MOL      0.155300
     13 H5         -0.1575   -0.0276    3.5655 ho        1 MOL      0.430500
@<TRIPOS>BOND
     1    1    6 ar  
     2    1    2 ar  
     3    2    3 ar  
     4    3    4 ar  
     5    4    5 ar  
     6    5    6 ar  
     7    5    7 1   
     8    4    8 1   
     9    1    9 1   
    10    2   10 1   
    11    3   11 1   
    12    6   12 1   
    13    7   13 1   
@<TRIPOS>SUBSTRUCTURE
     1 MOL         1 TEMP              0 ****  ****    0 ROOT
