@<TRIPOS>MOLECULE
(2R)-2-bromo-1,1,1,2-tetrafluoro-ethane
    8     7     1     0     0
SMALL
No Charge or Current Charge


@<TRIPOS>ATOM
      1 C1         -0.6118    0.4438   -0.0624 c3        1 MOL      0.198300
      2 H1         -1.5531   -0.1058   -0.0955 h2        1 MOL      0.116200
      3 C2          0.5637   -0.5323   -0.0325 c3        1 MOL      0.612000
      4 F1          0.5361   -1.2826   -1.1403 f         1 MOL     -0.216000
      5 F2          0.4673   -1.3444    1.0230 f         1 MOL     -0.216000
      6 F3          1.7322    0.1020    0.0136 f         1 MOL     -0.216000
      7 F4         -0.4831    1.2042   -1.1781 f         1 MOL     -0.176700
      8 Br1        -0.6119    1.5625    1.4950 br        1 MOL     -0.101800
@<TRIPOS>BOND
     1    1    2 1   
     2    1    3 1   
     3    3    4 1   
     4    3    5 1   
     5    3    6 1   
     6    1    7 1   
     7    1    8 1   
@<TRIPOS>SUBSTRUCTURE
     1 MOL         1 TEMP              0 ****  ****    0 ROOT
