@<TRIPOS>MOLECULE
3-chlorophenol
   13    13     1     0     0
SMALL
No Charge or Current Charge


@<TRIPOS>ATOM
      1 C1          1.8799   -1.0331   -0.1185 ca        1 MOL     -0.082200
      2 C2          2.9221   -1.6306    0.5857 ca        1 MOL     -0.215300
      3 C3          2.8824   -1.6533    1.9803 ca        1 MOL      0.134000
      4 C4          1.8109   -1.0843    2.6688 ca        1 MOL     -0.153700
      5 C5          0.7875   -0.4964    1.9385 ca        1 MOL      0.049500
      6 C6          0.8000   -0.4587    0.5459 ca        1 MOL     -0.160600
      7 Cl1        -0.5529    0.2155    2.7977 cl        1 MOL     -0.089500
      8 O1          3.8636   -2.2188    2.7361 oh        1 MOL     -0.493700
      9 H1          1.9102   -1.0151   -1.2038 ha        1 MOL      0.140200
     10 H2          3.7607   -2.0762    0.0558 ha        1 MOL      0.135200
     11 H3          1.7924   -1.1088    3.7528 ha        1 MOL      0.165300
     12 H4         -0.0151    0.0082    0.0047 ha        1 MOL      0.148900
     13 H5          4.5550   -2.5817    2.1645 ho        1 MOL      0.421700
@<TRIPOS>BOND
     1    1    6 ar  
     2    1    2 ar  
     3    2    3 ar  
     4    3    4 ar  
     5    4    5 ar  
     6    5    6 ar  
     7    5    7 1   
     8    3    8 1   
     9    1    9 1   
    10    2   10 1   
    11    4   11 1   
    12    6   12 1   
    13    8   13 1   
@<TRIPOS>SUBSTRUCTURE
     1 MOL         1 TEMP              0 ****  ****    0 ROOT
