@<TRIPOS>MOLECULE
4-fluorophenol
   13    13     1     0     0
SMALL
No Charge or Current Charge


@<TRIPOS>ATOM
      1 C1          1.9019   -1.0458   -0.1176 ca        1 MOL     -0.161800
      2 C2          2.9350   -1.6389    0.6071 ca        1 MOL     -0.128500
      3 C3          2.8622   -1.6431    1.9892 ca        1 MOL      0.088400
      4 C4          1.7957   -1.0767    2.6718 ca        1 MOL     -0.128500
      5 C5          0.7682   -0.4866    1.9439 ca        1 MOL     -0.161800
      6 C6          0.8207   -0.4708    0.5494 ca        1 MOL      0.111000
      7 O1         -0.2202    0.1243   -0.1040 oh        1 MOL     -0.494200
      8 F1          3.8613   -2.2168    2.6957 f         1 MOL     -0.141500
      9 H1          1.9426   -1.0334   -1.2045 ha        1 MOL      0.147700
     10 H2          3.7865   -2.0927    0.1114 ha        1 MOL      0.150400
     11 H3          1.7788   -1.1021    3.7563 ha        1 MOL      0.150400
     12 H4         -0.0829   -0.0331    2.4412 ha        1 MOL      0.147700
     13 H5         -0.0823    0.0789   -1.0604 ho        1 MOL      0.420900
@<TRIPOS>BOND
     1    1    6 ar  
     2    1    2 ar  
     3    2    3 ar  
     4    3    4 ar  
     5    4    5 ar  
     6    5    6 ar  
     7    6    7 1   
     8    3    8 1   
     9    1    9 1   
    10    2   10 1   
    11    4   11 1   
    12    5   12 1   
    13    7   13 1   
@<TRIPOS>SUBSTRUCTURE
     1 MOL         1 TEMP              0 ****  ****    0 ROOT
