@<TRIPOS>MOLECULE
methylsulfinylmethane
   10     9     1     0     0
SMALL
No Charge or Current Charge


@<TRIPOS>ATOM
      1 C1          0.8598   -0.5711    0.4160 c3        1 MOL     -0.130500
      2 S1          0.8724   -0.5444    2.2309 s4        1 MOL      0.271000
      3 O1          2.2125   -1.0978    2.6500 o         1 MOL     -0.507100
      4 C2          0.9949    1.2586    2.3999 c3        1 MOL     -0.130500
      5 H1         -0.0359   -0.0702    0.0384 h1        1 MOL      0.082900
      6 H2          0.8571   -1.6193    0.1113 h1        1 MOL      0.082900
      7 H3          1.7689   -0.0847    0.0521 h1        1 MOL      0.082900
      8 H4          1.0859    1.4748    3.4660 h1        1 MOL      0.082900
      9 H5          0.0974    1.7363    1.9974 h1        1 MOL      0.082900
     10 H6          1.8931    1.5993    1.8777 h1        1 MOL      0.082900
@<TRIPOS>BOND
     1    1    2 1   
     2    2    3 2   
     3    2    4 1   
     4    1    5 1   
     5    1    6 1   
     6    1    7 1   
     7    4    8 1   
     8    4    9 1   
     9    4   10 1   
@<TRIPOS>SUBSTRUCTURE
     1 MOL         1 TEMP              0 ****  ****    0 ROOT
