@<TRIPOS>MOLECULE
trifluoromethylbenzene
   15    15     1     0     0
SMALL
No Charge or Current Charge


@<TRIPOS>ATOM
      1 C1          1.8839   -1.0352   -0.1038 ca        1 MOL     -0.100900
      2 C2          2.9236   -1.6317    0.6055 ca        1 MOL     -0.134100
      3 C3          2.8936   -1.6610    1.9992 ca        1 MOL     -0.081500
      4 C4          1.8167   -1.0892    2.6702 ca        1 MOL     -0.167700
      5 C5          0.7716   -0.4899    1.9667 ca        1 MOL     -0.081500
      6 C6          0.8075   -0.4641    0.5766 ca        1 MOL     -0.134100
      7 C7          1.7489   -1.1008    4.1715 c3        1 MOL      0.686000
      8 F1          2.8102   -1.7043    4.7297 f         1 MOL     -0.237500
      9 F2          1.6911    0.1466    4.6768 f         1 MOL     -0.237500
     10 F3          0.6501   -1.7414    4.6153 f         1 MOL     -0.237500
     11 H1          1.9106   -1.0144   -1.1893 ha        1 MOL      0.139200
     12 H2          3.7606   -2.0759    0.0757 ha        1 MOL      0.142200
     13 H3          3.6985   -2.1234    2.5608 ha        1 MOL      0.151400
     14 H4         -0.0611   -0.0485    2.5073 ha        1 MOL      0.151400
     15 H5         -0.0028    0.0009    0.0236 ha        1 MOL      0.142200
@<TRIPOS>BOND
     1    1    6 ar  
     2    1    2 ar  
     3    2    3 ar  
     4    3    4 ar  
     5    4    5 ar  
     6    5    6 ar  
     7    4    7 1   
     8    7    8 1   
     9    7    9 1   
    10    7   10 1   
    11    1   11 1   
    12    2   12 1   
    13    3   13 1   
    14    5   14 1   
    15    6   15 1   
@<TRIPOS>SUBSTRUCTURE
     1 MOL         1 TEMP              0 ****  ****    0 ROOT
