@<TRIPOS>MOLECULE
cyclopentane
   15    15     1     0     0
SMALL
No Charge or Current Charge


@<TRIPOS>ATOM
      1 C1         -0.2498    0.8640   -0.9463 c3        1 MOL     -0.080700
      2 C2          1.1414    0.4786   -0.3767 c3        1 MOL     -0.080700
      3 C3          0.8467   -0.3259    0.8991 c3        1 MOL     -0.080700
      4 C4         -0.4572   -1.0526    0.5578 c3        1 MOL     -0.080700
      5 C5         -1.2825    0.0391   -0.1379 c3        1 MOL     -0.080700
      6 H1         -0.3084    0.6303   -2.0140 hc        1 MOL      0.040300
      7 H2         -0.4408    1.9370   -0.8482 hc        1 MOL      0.040300
      8 H3          1.6760   -0.1582   -1.0911 hc        1 MOL      0.040300
      9 H4          1.7754    1.3501   -0.1881 hc        1 MOL      0.040300
     10 H5          1.6633   -0.9999    1.1766 hc        1 MOL      0.040300
     11 H6          0.6747    0.3535    1.7445 hc        1 MOL      0.040300
     12 H7         -0.2486   -1.8725   -0.1427 hc        1 MOL      0.040300
     13 H8         -0.9610   -1.4806    1.4303 hc        1 MOL      0.040300
     14 H9         -2.0838   -0.3648   -0.7640 hc        1 MOL      0.040300
     15 H10        -1.7548    0.6718    0.6233 hc        1 MOL      0.040300
@<TRIPOS>BOND
     1    1    5 1   
     2    1    2 1   
     3    2    3 1   
     4    3    4 1   
     5    4    5 1   
     6    1    6 1   
     7    1    7 1   
     8    2    8 1   
     9    2    9 1   
    10    3   10 1   
    11    3   11 1   
    12    4   12 1   
    13    4   13 1   
    14    5   14 1   
    15    5   15 1   
@<TRIPOS>SUBSTRUCTURE
     1 MOL         1 TEMP              0 ****  ****    0 ROOT
