@<TRIPOS>MOLECULE
chloro(difluoro)methane
    5     4     1     0     0
SMALL
No Charge or Current Charge


@<TRIPOS>ATOM
      1 C1         -0.0305    0.0914    0.0614 c3        1 MOL      0.511400
      2 F1         -1.3334   -0.2234    0.0298 f         1 MOL     -0.213200
      3 F2          0.4855   -0.3997    1.1973 f         1 MOL     -0.213200
      4 Cl1         0.7866   -0.6414   -1.3224 cl        1 MOL     -0.192500
      5 H1          0.0919    1.1729    0.0340 h3        1 MOL      0.107400
@<TRIPOS>BOND
     1    1    2 1   
     2    1    3 1   
     3    1    4 1   
     4    1    5 1   
@<TRIPOS>SUBSTRUCTURE
     1 MOL         1 TEMP              0 ****  ****    0 ROOT
