@<TRIPOS>MOLECULE
2-chloro-1,1,1-trifluoro-ethane
    8     7     1     0     0
SMALL
No Charge or Current Charge


@<TRIPOS>ATOM
      1 C1         -0.0184    0.7272   -0.2645 c3        1 MOL     -0.029700
      2 C2          0.0290   -0.7356    0.1272 c3        1 MOL      0.624900
      3 F1         -1.0828   -1.1293    0.7570 f         1 MOL     -0.229700
      4 F2          1.0701   -1.0160    0.9180 f         1 MOL     -0.229700
      5 F3          0.1515   -1.4788   -0.9874 f         1 MOL     -0.229700
      6 Cl1        -0.1804    1.7752    1.1559 cl        1 MOL     -0.112600
      7 H1          0.9061    0.9754   -0.7860 h1        1 MOL      0.103300
      8 H2         -0.8754    0.8819   -0.9202 h1        1 MOL      0.103300
@<TRIPOS>BOND
     1    1    2 1   
     2    2    3 1   
     3    2    4 1   
     4    2    5 1   
     5    1    6 1   
     6    1    7 1   
     7    1    8 1   
@<TRIPOS>SUBSTRUCTURE
     1 MOL         1 TEMP              0 ****  ****    0 ROOT
