@<TRIPOS>MOLECULE
pyridine-3-carbonitrile
   12    12     1     0     0
SMALL
No Charge or Current Charge


@<TRIPOS>ATOM
      1 C1          1.6528   -0.6217    2.8987 ca        1 MOL     -0.249500
      2 C2          1.4098   -0.0558    1.6547 ca        1 MOL     -0.056300
      3 C3          0.2382   -0.4187    0.9849 ca        1 MOL     -0.135900
      4 C4         -0.6345   -1.3311    1.5924 ca        1 MOL      0.436400
      5 N1         -0.4022   -1.8734    2.7840 nb        1 MOL     -0.664300
      6 C5          0.7199   -1.5205    3.4164 ca        1 MOL      0.415900
      7 C6         -0.0782    0.1280   -0.3071 cg        1 MOL      0.235000
      8 N2         -0.3343    0.5669   -1.3469 n1        1 MOL     -0.351800
      9 H1          2.5467   -0.3747    3.4612 ha        1 MOL      0.153800
     10 H2          2.1015    0.6493    1.2042 ha        1 MOL      0.150800
     11 H3         -1.5511   -1.6260    1.0873 h4        1 MOL      0.036600
     12 H4          0.8810   -1.9810    4.3881 h4        1 MOL      0.029400
@<TRIPOS>BOND
     1    1    6 ar  
     2    1    2 ar  
     3    2    3 ar  
     4    3    4 ar  
     5    4    5 ar  
     6    5    6 ar  
     7    3    7 1   
     8    7    8 3   
     9    1    9 1   
    10    2   10 1   
    11    4   11 1   
    12    6   12 1   
@<TRIPOS>SUBSTRUCTURE
     1 MOL         1 TEMP              0 ****  ****    0 ROOT
