@<TRIPOS>MOLECULE
bromomethane
    5     4     1     0     0
SMALL
No Charge or Current Charge


@<TRIPOS>ATOM
      1 C1          0.1372   -0.1010   -0.0739 c3        1 MOL     -0.039400
      2 Br1        -1.2960    0.9533    0.6968 br        1 MOL     -0.167900
      3 H1          0.8146    0.5767   -0.5883 h1        1 MOL      0.069100
      4 H2          0.6473   -0.6179    0.7357 h1        1 MOL      0.069100
      5 H3         -0.3031   -0.8111   -0.7702 h1        1 MOL      0.069100
@<TRIPOS>BOND
     1    1    2 1   
     2    1    3 1   
     3    1    4 1   
     4    1    5 1   
@<TRIPOS>SUBSTRUCTURE
     1 MOL         1 TEMP              0 ****  ****    0 ROOT
