@<TRIPOS>MOLECULE
2-iodophenol
   13    13     1     0     0
SMALL
No Charge or Current Charge


@<TRIPOS>ATOM
      1 C1          1.8858   -1.0369   -0.1077 ca        1 MOL     -0.078600
      2 C2          2.9312   -1.6360    0.5979 ca        1 MOL     -0.169900
      3 C3          2.8922   -1.6591    1.9883 ca        1 MOL     -0.062700
      4 C4          1.8154   -1.0871    2.6645 ca        1 MOL     -0.063400
      5 C5          0.7588   -0.4821    1.9679 ca        1 MOL      0.163600
      6 C6          0.8147   -0.4679    0.5671 ca        1 MOL     -0.161800
      7 O1         -0.3076    0.0872    2.5520 oh        1 MOL     -0.491000
      8 I1          1.7743   -1.1322    4.7742 i         1 MOL     -0.143800
      9 H1          1.9048   -1.0123   -1.1980 ha        1 MOL      0.139000
     10 H2          3.7741   -2.0839    0.0717 ha        1 MOL      0.139100
     11 H3          3.6994   -2.1225    2.5563 ha        1 MOL      0.144800
     12 H4         -0.0122    0.0051    0.0364 ha        1 MOL      0.154900
     13 H5         -0.2402    0.0191    3.5146 ho        1 MOL      0.429800
@<TRIPOS>BOND
     1    1    6 ar  
     2    1    2 ar  
     3    2    3 ar  
     4    3    4 ar  
     5    4    5 ar  
     6    5    6 ar  
     7    5    7 1   
     8    4    8 1   
     9    1    9 1   
    10    2   10 1   
    11    3   11 1   
    12    6   12 1   
    13    7   13 1   
@<TRIPOS>SUBSTRUCTURE
     1 MOL         1 TEMP              0 ****  ****    0 ROOT
