@<TRIPOS>MOLECULE
prop-1-yne
    7     6     1     0     0
SMALL
No Charge or Current Charge


@<TRIPOS>ATOM
      1 C1         -0.7151    0.3667   -0.7406 c3        1 MOL     -0.022100
      2 C2         -0.6490    1.8250   -0.8442 c1        1 MOL     -0.139300
      3 C3         -0.5942    3.0269   -0.9305 c1        1 MOL     -0.163500
      4 H1          0.2433   -0.0842   -1.0132 hc        1 MOL      0.053900
      5 H2         -0.9576    0.0628    0.2817 hc        1 MOL      0.053900
      6 H3         -1.4836   -0.0337   -1.4079 hc        1 MOL      0.053900
      7 H4         -0.5453    4.0907   -1.0067 ha        1 MOL      0.163300
@<TRIPOS>BOND
     1    1    2 1   
     2    2    3 3   
     3    1    4 1   
     4    1    5 1   
     5    1    6 1   
     6    3    7 1   
@<TRIPOS>SUBSTRUCTURE
     1 MOL         1 TEMP              0 ****  ****    0 ROOT
