@<TRIPOS>MOLECULE
cyclopentene
   13    13     1     0     0
SMALL
No Charge or Current Charge


@<TRIPOS>ATOM
      1 C1          1.0381    0.7525   -0.0799 c3        1 MOL     -0.082800
      2 C2          1.0156   -0.7604    0.2322 c3        1 MOL     -0.057800
      3 C3         -0.4169   -1.1412   -0.0661 c2        1 MOL     -0.177000
      4 C4         -1.2029   -0.0679   -0.1699 c2        1 MOL     -0.177000
      5 C5         -0.4311    1.2150    0.0411 c3        1 MOL     -0.057800
      6 H1          1.3733    0.8981   -1.1126 hc        1 MOL      0.042800
      7 H2          1.7158    1.3118    0.5708 hc        1 MOL      0.042800
      8 H3          1.7430   -1.3220   -0.3639 hc        1 MOL      0.049000
      9 H4          1.2485   -0.9610    1.2877 hc        1 MOL      0.049000
     10 H5         -0.7536   -2.1715   -0.1362 ha        1 MOL      0.135300
     11 H6         -2.2759   -0.0929   -0.3373 ha        1 MOL      0.135300
     12 H7         -0.6860    1.9947   -0.6848 hc        1 MOL      0.049000
     13 H8         -0.6467    1.6268    1.0373 hc        1 MOL      0.049000
@<TRIPOS>BOND
     1    1    5 1   
     2    1    2 1   
     3    2    3 1   
     4    3    4 2   
     5    4    5 1   
     6    1    6 1   
     7    1    7 1   
     8    2    8 1   
     9    2    9 1   
    10    3   10 1   
    11    4   11 1   
    12    5   12 1   
    13    5   13 1   
@<TRIPOS>SUBSTRUCTURE
     1 MOL         1 TEMP              0 ****  ****    0 ROOT
