@<TRIPOS>MOLECULE
tetrahydrofuran
   13    13     1     0     0
SMALL
No Charge or Current Charge


@<TRIPOS>ATOM
      1 C1         -0.5355   -1.0377   -0.5113 c3        1 MOL     -0.111700
      2 C2         -0.5519    0.3817   -1.0839 c3        1 MOL     -0.111700
      3 C3          0.6138    1.0207   -0.3289 c3        1 MOL      0.124000
      4 O1          0.6476    0.3908    0.9500 os        1 MOL     -0.429500
      5 C4         -0.1888   -0.7642    0.9524 c3        1 MOL      0.124000
      6 H1          0.2559   -1.6284   -0.9865 hc        1 MOL      0.054700
      7 H2         -1.4831   -1.5696   -0.6304 hc        1 MOL      0.054700
      8 H3         -0.4253    0.4182   -2.1691 hc        1 MOL      0.054700
      9 H4         -1.4924    0.8825   -0.8274 hc        1 MOL      0.054700
     10 H5          1.5661    0.8363   -0.8454 h1        1 MOL      0.046500
     11 H6          0.4990    2.0987   -0.1820 h1        1 MOL      0.046500
     12 H7          0.3534   -1.5844    1.4322 h1        1 MOL      0.046500
     13 H8         -1.0936   -0.5513    1.5385 h1        1 MOL      0.046500
@<TRIPOS>BOND
     1    1    5 1   
     2    1    2 1   
     3    2    3 1   
     4    3    4 1   
     5    4    5 1   
     6    1    6 1   
     7    1    7 1   
     8    2    8 1   
     9    2    9 1   
    10    3   10 1   
    11    3   11 1   
    12    5   12 1   
    13    5   13 1   
@<TRIPOS>SUBSTRUCTURE
     1 MOL         1 TEMP              0 ****  ****    0 ROOT
