@<TRIPOS>MOLECULE
(2R)-1,1,1-trifluoropropan-2-ol
   12    11     1     0     0
SMALL
No Charge or Current Charge


@<TRIPOS>ATOM
      1 C1         -0.7792    0.5982    0.8501 c3        1 MOL     -0.139900
      2 C2         -0.2675   -0.1623   -0.3648 c3        1 MOL      0.110700
      3 H1         -0.9122   -1.0260   -0.5835 h1        1 MOL      0.070600
      4 C3          1.1161   -0.7398   -0.1062 c3        1 MOL      0.634200
      5 F1          1.0699   -1.6029    0.9283 f         1 MOL     -0.232600
      6 F2          1.5799   -1.4112   -1.1664 f         1 MOL     -0.232600
      7 F3          2.0112    0.2077    0.2017 f         1 MOL     -0.232600
      8 O1         -0.1176    0.6586   -1.5002 oh        1 MOL     -0.583400
      9 H2         -0.1189    1.4414    1.0698 hc        1 MOL      0.062400
     10 H3         -0.8392   -0.0521    1.7268 hc        1 MOL      0.062400
     11 H4         -1.7834    0.9833    0.6457 hc        1 MOL      0.062400
     12 H5         -0.9634    1.0835   -1.6981 ho        1 MOL      0.418600
@<TRIPOS>BOND
     1    1    2 1   
     2    2    3 1   
     3    2    4 1   
     4    4    5 1   
     5    4    6 1   
     6    4    7 1   
     7    2    8 1   
     8    1    9 1   
     9    1   10 1   
    10    1   11 1   
    11    8   12 1   
@<TRIPOS>SUBSTRUCTURE
     1 MOL         1 TEMP              0 ****  ****    0 ROOT
