@<TRIPOS>MOLECULE
but-1-yne
   10     9     1     0     0
SMALL
No Charge or Current Charge


@<TRIPOS>ATOM
      1 C1          1.0293    0.2815    0.2313 c3        1 MOL     -0.089700
      2 C2          1.4668   -0.3555    1.5563 c3        1 MOL     -0.004200
      3 C3          1.4049   -1.8201    1.5149 c1        1 MOL     -0.139100
      4 C4          1.3457   -3.0243    1.4564 c1        1 MOL     -0.162800
      5 H1          1.0874    1.3719    0.2972 hc        1 MOL      0.039200
      6 H2         -0.0001    0.0025   -0.0094 hc        1 MOL      0.039200
      7 H3          1.6723   -0.0518   -0.5878 hc        1 MOL      0.039200
      8 H4          0.8307    0.0043    2.3732 hc        1 MOL      0.057500
      9 H5          2.4910   -0.0496    1.7990 hc        1 MOL      0.057500
     10 H6          1.2954   -4.0899    1.4105 ha        1 MOL      0.163200
@<TRIPOS>BOND
     1    1    2 1   
     2    2    3 1   
     3    3    4 3   
     4    1    5 1   
     5    1    6 1   
     6    1    7 1   
     7    2    8 1   
     8    2    9 1   
     9    4   10 1   
@<TRIPOS>SUBSTRUCTURE
     1 MOL         1 TEMP              0 ****  ****    0 ROOT
