@<TRIPOS>MOLECULE
methylsulfanylmethane
    9     8     1     0     0
SMALL
No Charge or Current Charge


@<TRIPOS>ATOM
      1 C1          0.9892   -0.3335    0.3324 c3        1 MOL     -0.046500
      2 S1          1.2258    0.1804    2.0545 ss        1 MOL     -0.276900
      3 C2          2.8907   -0.4908    2.3055 c3        1 MOL     -0.046500
      4 H1         -0.0003    0.0072    0.0204 h1        1 MOL      0.061700
      5 H2          1.0320   -1.4222    0.2379 h1        1 MOL      0.061700
      6 H3          1.7395    0.1217   -0.3201 h1        1 MOL      0.061700
      7 H4          3.1885   -0.2574    3.3299 h1        1 MOL      0.061700
      8 H5          3.6071   -0.0321    1.6182 h1        1 MOL      0.061700
      9 H6          2.9004   -1.5766    2.1755 h1        1 MOL      0.061700
@<TRIPOS>BOND
     1    1    2 1   
     2    2    3 1   
     3    1    4 1   
     4    1    5 1   
     5    1    6 1   
     6    3    7 1   
     7    3    8 1   
     8    3    9 1   
@<TRIPOS>SUBSTRUCTURE
     1 MOL         1 TEMP              0 ****  ****    0 ROOT
