@<TRIPOS>MOLECULE
2-bromopropane
   11    10     1     0     0
SMALL
No Charge or Current Charge


@<TRIPOS>ATOM
      1 C1         -0.2501   -0.5642   -1.1358 c3        1 MOL     -0.096100
      2 C2         -0.1651   -0.4030    0.3707 c3        1 MOL      0.023600
      3 C3          0.2096    1.0096    0.7796 c3        1 MOL     -0.096100
      4 Br1         1.2094   -1.6362    1.0540 br        1 MOL     -0.197600
      5 H1         -0.5032   -1.5883   -1.4195 hc        1 MOL      0.048400
      6 H2         -1.0226    0.1081   -1.5286 hc        1 MOL      0.048400
      7 H3          0.7068   -0.3010   -1.5971 hc        1 MOL      0.048400
      8 H4         -1.0847   -0.7288    0.8590 h1        1 MOL      0.075500
      9 H5          0.2849    1.1101    1.8648 hc        1 MOL      0.048400
     10 H6         -0.5558    1.7063    0.4167 hc        1 MOL      0.048400
     11 H7          1.1707    1.2874    0.3362 hc        1 MOL      0.048400
@<TRIPOS>BOND
     1    1    2 1   
     2    2    3 1   
     3    2    4 1   
     4    1    5 1   
     5    1    6 1   
     6    1    7 1   
     7    2    8 1   
     8    3    9 1   
     9    3   10 1   
    10    3   11 1   
@<TRIPOS>SUBSTRUCTURE
     1 MOL         1 TEMP              0 ****  ****    0 ROOT
