@<TRIPOS>MOLECULE
dibromomethane
    5     4     1     0     0
SMALL
No Charge or Current Charge


@<TRIPOS>ATOM
      1 C1          0.1758   -0.0223    0.0464 c3        1 MOL      0.010500
      2 Br1        -0.4981   -0.2990   -1.7347 br        1 MOL     -0.109300
      3 Br2        -1.1935    0.5137    1.2877 br        1 MOL     -0.109300
      4 H1          0.9191    0.7672    0.0052 h2        1 MOL      0.104000
      5 H2          0.5968   -0.9596    0.3953 h2        1 MOL      0.104000
@<TRIPOS>BOND
     1    1    2 1   
     2    1    3 1   
     3    1    4 1   
     4    1    5 1   
@<TRIPOS>SUBSTRUCTURE
     1 MOL         1 TEMP              0 ****  ****    0 ROOT
