@<TRIPOS>MOLECULE
fluoromethane
    5     4     1     0     0
SMALL
No Charge or Current Charge


@<TRIPOS>ATOM
      1 C1          0.0389   -0.0387   -0.0402 c3        1 MOL      0.148200
      2 F1         -0.7569    0.7456    0.7773 f         1 MOL     -0.250200
      3 H1          0.8232    0.5900   -0.4681 h1        1 MOL      0.034000
      4 H2          0.4787   -0.8362    0.5631 h1        1 MOL      0.034000
      5 H3         -0.5839   -0.4607   -0.8321 h1        1 MOL      0.034000
@<TRIPOS>BOND
     1    1    2 1   
     2    1    3 1   
     3    1    4 1   
     4    1    5 1   
@<TRIPOS>SUBSTRUCTURE
     1 MOL         1 TEMP              0 ****  ****    0 ROOT
