@<TRIPOS>MOLECULE
5-chloro-1H-pyrimidine-2,4-dione
   12    12     1     0     0
SMALL
No Charge or Current Charge


@<TRIPOS>ATOM
      1 C1          0.6713    1.3636   -0.0595 cc        1 MOL      0.049200
      2 C2         -0.2989    0.9388    0.7712 cd        1 MOL     -0.175600
      3 C3         -0.8158   -0.4348    0.6612 c         1 MOL      0.719300
      4 O1         -1.6813   -0.9254    1.3483 o         1 MOL     -0.582300
      5 N1         -0.1941   -1.1706   -0.3571 n         1 MOL     -0.584400
      6 C4          0.8025   -0.7691   -1.2273 c         1 MOL      0.803600
      7 O2          1.2821   -1.4813   -2.0820 o         1 MOL     -0.627600
      8 N2          1.2039    0.5423   -1.0236 n         1 MOL     -0.465200
      9 Cl1        -0.9741    1.9567    1.9823 cl        1 MOL     -0.028000
     10 H1          1.0766    2.3679   -0.0081 h4        1 MOL      0.172200
     11 H2         -0.5166   -2.1267   -0.4734 hn        1 MOL      0.358600
     12 H3          1.9329    0.8718   -1.6428 hn        1 MOL      0.360300
@<TRIPOS>BOND
     1    1    8 1   
     2    1    2 2   
     3    2    3 1   
     4    3    4 2   
     5    3    5 1   
     6    5    6 1   
     7    6    7 2   
     8    6    8 1   
     9    2    9 1   
    10    1   10 1   
    11    5   11 1   
    12    8   12 1   
@<TRIPOS>SUBSTRUCTURE
     1 MOL         1 TEMP              0 ****  ****    0 ROOT
