@<TRIPOS>MOLECULE
cyclohepta-1,3,5-triene
   15    15     1     0     0
SMALL
No Charge or Current Charge


@<TRIPOS>ATOM
      1 C1          0.5177    1.5180    0.0104 c3        1 MOL     -0.009600
      2 C2          1.4831    0.4433    0.4335 c2        1 MOL     -0.141200
      3 C3          1.3378   -0.8300    0.0180 ce        1 MOL     -0.133600
      4 C4          0.1988   -1.3306   -0.7299 ce        1 MOL     -0.119500
      5 C5         -1.0836   -0.8941   -0.6075 cf        1 MOL     -0.119500
      6 C6         -1.5398    0.1494    0.2926 cf        1 MOL     -0.133600
      7 C7         -0.8118    1.2244    0.6526 c2        1 MOL     -0.141200
