@<TRIPOS>MOLECULE
2,6-dichlorobenzonitrile
   13    13     1     0     0
SMALL
No Charge or Current Charge


@<TRIPOS>ATOM
      1 C1          1.8852   -1.0365   -0.1162 ca        1 MOL     -0.091900
      2 C2          2.9245   -1.6322    0.5924 ca        1 MOL     -0.132000
      3 C3          2.8786   -1.6510    1.9811 ca        1 MOL      0.054900
      4 C4          1.8001   -1.0782    2.6730 ca        1 MOL     -0.004400
      5 C5          0.7652   -0.4839    1.9340 ca        1 MOL      0.054900
      6 C6          0.8041   -0.4612    0.5452 ca        1 MOL     -0.132000
      7 Cl1        -0.5755    0.2292    2.7624 cl        1 MOL     -0.056400
      8 C7          1.7564   -1.0995    4.1084 cg        1 MOL      0.231800
      9 N1          1.7211   -1.1168    5.2645 n1        1 MOL     -0.332600
     10 Cl2         4.1670   -2.3897    2.8680 cl        1 MOL     -0.056400
     11 H1          1.9183   -1.0203   -1.2011 ha        1 MOL      0.149200
     12 H2          3.7679   -2.0811    0.0796 ha        1 MOL      0.157500
     13 H3         -0.0069    0.0035   -0.0044 ha        1 MOL      0.157500
@<TRIPOS>BOND
     1    1    6 ar  
     2    1    2 ar  
     3    2    3 ar  
     4    3    4 ar  
     5    4    5 ar  
     6    5    6 ar  
     7    5    7 1   
     8    4    8 1   
     9    8    9 3   
    10    3   10 1   
    11    1   11 1   
    12    2   12 1   
    13    6   13 1   
@<TRIPOS>SUBSTRUCTURE
     1 MOL         1 TEMP              0 ****  ****    0 ROOT
