@<TRIPOS>MOLECULE
N,N-dimethylmethanamine
   13    12     1     0     0
SMALL
No Charge or Current Charge


@<TRIPOS>ATOM
      1 C1         -0.2713   -0.2572    1.0356 c3        1 MOL      0.149500
      2 N1          0.9013   -0.5147    1.8506 n3        1 MOL     -0.726200
      3 C2          1.7413    0.6654    1.9347 c3        1 MOL      0.149500
      4 C3          1.6505   -1.6452    1.3348 c3        1 MOL      0.149500
      5 H1         -0.9108   -1.1450    1.0164 h1        1 MOL      0.030900
      6 H2         -0.0086    0.0050   -0.0085 h1        1 MOL      0.030900
      7 H3         -0.8444    0.5704    1.4645 h1        1 MOL      0.030900
      8 H4          2.5977    0.4636    2.5852 h1        1 MOL      0.030900
      9 H5          1.1716    1.4952    2.3636 h1        1 MOL      0.030900
     10 H6          2.1239    0.9811    0.9438 h1        1 MOL      0.030900
     11 H7          2.5068   -1.8494    1.9846 h1        1 MOL      0.030900
     12 H8          2.0275   -1.4666    0.3082 h1        1 MOL      0.030900
     13 H9          1.0128   -2.5343    1.3167 h1        1 MOL      0.030900
@<TRIPOS>BOND
     1    1    2 1   
     2    2    3 1   
     3    2    4 1   
     4    1    5 1   
     5    1    6 1   
     6    1    7 1   
     7    3    8 1   
     8    3    9 1   
     9    3   10 1   
    10    4   11 1   
    11    4   12 1   
    12    4   13 1   
@<TRIPOS>SUBSTRUCTURE
     1 MOL         1 TEMP              0 ****  ****    0 ROOT
