@<TRIPOS>MOLECULE
methane
    5     4     1     0     0
SMALL
No Charge or Current Charge


@<TRIPOS>ATOM
      1 C1          0.0000   -0.0001    0.0000 c3        1 MOL     -0.108700
      2 H1          0.5541    0.7996    0.4965 hc        1 MOL      0.027200
      3 H2          0.6833   -0.8134   -0.2537 hc        1 MOL      0.027200
      4 H3         -0.7782   -0.3735    0.6693 hc        1 MOL      0.027200
      5 H4         -0.4591    0.3873   -0.9121 hc        1 MOL      0.027200
@<TRIPOS>BOND
     1    1    2 1   
     2    1    3 1   
     3    1    4 1   
     4    1    5 1   
@<TRIPOS>SUBSTRUCTURE
     1 MOL         1 TEMP              0 ****  ****    0 ROOT
