@<TRIPOS>MOLECULE
3,4-dichlorophenol
   13    13     1     0     0
SMALL
No Charge or Current Charge


@<TRIPOS>ATOM
      1 C1          1.8997   -1.0437   -0.1262 ca        1 MOL     -0.208400
      2 C2          2.9240   -1.6322    0.6059 ca        1 MOL     -0.076500
      3 C3          2.8845   -1.6551    1.9969 ca        1 MOL     -0.020000
      4 C4          1.7961   -1.0760    2.6562 ca        1 MOL      0.052000
      5 C5          0.7664   -0.4848    1.9331 ca        1 MOL     -0.148100
      6 C6          0.8183   -0.4687    0.5415 ca        1 MOL      0.135600
      7 O1         -0.2209    0.1253   -0.1044 oh        1 MOL     -0.489700
      8 Cl1         1.6970   -1.0769    4.3878 cl        1 MOL     -0.064200
      9 Cl2         4.1843   -2.4002    2.8711 cl        1 MOL     -0.069500
     10 H1          1.9453   -1.0340   -1.2124 ha        1 MOL      0.140700
     11 H2          3.7703   -2.0828    0.0977 ha        1 MOL      0.154100
     12 H3         -0.0776   -0.0357    2.4450 ha        1 MOL      0.169900
     13 H4         -0.0901    0.0838   -1.0623 ho        1 MOL      0.424100
@<TRIPOS>BOND
     1    1    6 ar  
     2    1    2 ar  
     3    2    3 ar  
     4    3    4 ar  
     5    4    5 ar  
     6    5    6 ar  
     7    6    7 1   
     8    4    8 1   
     9    3    9 1   
    10    1   10 1   
    11    2   11 1   
    12    5   12 1   
    13    7   13 1   
@<TRIPOS>SUBSTRUCTURE
     1 MOL         1 TEMP              0 ****  ****    0 ROOT
