@<TRIPOS>MOLECULE
piperazine
   16    16     1     0     0
SMALL
No Charge or Current Charge


@<TRIPOS>ATOM
      1 C1         -0.8638   -1.0493   -0.4316 c3        1 MOL      0.159400
      2 C2         -0.8304    0.3119   -1.1152 c3        1 MOL      0.159400
      3 N1         -0.4615    1.3238   -0.1278 n3        1 MOL     -0.817400
      4 C3          0.8577    1.0503    0.4376 c3        1 MOL      0.159400
      5 C4          0.8243   -0.3109    1.1212 c3        1 MOL      0.159400
      6 N2          0.4554   -1.3228    0.1339 n3        1 MOL     -0.817400
      7 H1         -1.1024   -1.8280   -1.1630 h1        1 MOL      0.034300
      8 H2         -1.6557   -1.0323    0.3383 h1        1 MOL      0.034300
      9 H3         -0.1133    0.2622   -1.9539 h1        1 MOL      0.034300
     10 H4         -1.8207    0.5532   -1.5144 h1        1 MOL      0.034300
     11 H5         -0.4806    2.2493   -0.5472 hn        1 MOL      0.361400
     12 H6          1.6496    1.0333   -0.3323 h1        1 MOL      0.034300
     13 H7          1.0964    1.8291    1.1689 h1        1 MOL      0.034300
     14 H8          1.8147   -0.5521    1.5203 h1        1 MOL      0.034300
     15 H9          0.1073   -0.2612    1.9600 h1        1 MOL      0.034300
     16 H10         0.4746   -2.2484    0.5532 hn        1 MOL      0.361400
@<TRIPOS>BOND
     1    1    6 1   
     2    1    2 1   
     3    2    3 1   
     4    3    4 1   
     5    4    5 1   
     6    5    6 1   
     7    1    7 1   
     8    1    8 1   
     9    2    9 1   
    10    2   10 1   
    11    3   11 1   
    12    4   12 1   
    13    4   13 1   
    14    5   14 1   
    15    5   15 1   
    16    6   16 1   
@<TRIPOS>SUBSTRUCTURE
     1 MOL         1 TEMP              0 ****  ****    0 ROOT
