@<TRIPOS>MOLECULE
(E)-1,2-dichloroethylene
    6     5     1     0     0
SMALL
No Charge or Current Charge


@<TRIPOS>ATOM
      1 C1         -0.6307    0.0877   -0.1860 c2        1 MOL     -0.070100
      2 C2          0.6306   -0.0878    0.1861 c2        1 MOL     -0.070000
      3 Cl1         1.2189    0.5134    1.6971 cl        1 MOL     -0.094900
      4 Cl2        -1.2188   -0.5132   -1.6971 cl        1 MOL     -0.094900
      5 H1         -1.3674    0.6081    0.4149 h4        1 MOL      0.165000
      6 H2          1.3674   -0.6081   -0.4149 h4        1 MOL      0.165000
@<TRIPOS>BOND
     1    1    2 2   
     2    2    3 1   
     3    1    4 1   
     4    1    5 1   
     5    2    6 1   
@<TRIPOS>SUBSTRUCTURE
     1 MOL         1 TEMP              0 ****  ****    0 ROOT
