@<TRIPOS>MOLECULE
2-methylthiophene
   12    12     1     0     0
SMALL
No Charge or Current Charge


@<TRIPOS>ATOM
      1 C1         -1.8184   -2.2356   -0.4417 c3        1 MOL     -0.024400
      2 C2         -1.3445   -1.1096   -1.3107 cc        1 MOL     -0.094700
      3 C3         -0.5645   -0.0424   -0.9645 cd        1 MOL     -0.158300
      4 C4         -0.3039    0.8473   -2.0541 cd        1 MOL     -0.154200
      5 C5         -0.8935    0.4374   -3.2129 cc        1 MOL     -0.166100
      6 S1         -1.7704   -1.0329   -2.9906 ss        1 MOL     -0.015600
      7 H1         -1.4601   -3.2041   -0.8054 hc        1 MOL      0.046900
      8 H2         -1.4419   -2.0951    0.5753 hc        1 MOL      0.046900
      9 H3         -2.9115   -2.2773   -0.3960 hc        1 MOL      0.046900
     10 H4         -0.1866    0.1035    0.0422 ha        1 MOL      0.152000
     11 H5          0.2944    1.7479   -1.9739 ha        1 MOL      0.151400
     12 H6         -0.8649    0.9120   -4.1844 h4        1 MOL      0.169200
@<TRIPOS>BOND
     1    1    2 1   
     2    2    6 1   
     3    2    3 2   
     4    3    4 1   
     5    4    5 2   
     6    5    6 1   
     7    1    7 1   
     8    1    8 1   
     9    1    9 1   
    10    3   10 1   
    11    4   11 1   
    12    5   12 1   
@<TRIPOS>SUBSTRUCTURE
     1 MOL         1 TEMP              0 ****  ****    0 ROOT
