@<TRIPOS>MOLECULE
bromoethane
    8     7     1     0     0
SMALL
No Charge or Current Charge


@<TRIPOS>ATOM
      1 C1          0.0009   -0.7274    0.8122 c3        1 MOL     -0.096100
      2 C2          1.1343   -0.4452    1.7766 c3        1 MOL     -0.007700
      3 Br1         2.8726   -0.5375    0.8885 br        1 MOL     -0.183800
      4 H1         -0.9523   -0.6656    1.3499 hc        1 MOL      0.048400
      5 H2         -0.0132    0.0011   -0.0024 hc        1 MOL      0.048400
      6 H3          0.0909   -1.7278    0.3811 hc        1 MOL      0.048400
      7 H4          1.1807   -1.1750    2.5842 h1        1 MOL      0.071200
      8 H5          1.0763    0.5570    2.2000 h1        1 MOL      0.071200
@<TRIPOS>BOND
     1    1    2 1   
     2    2    3 1   
     3    1    4 1   
     4    1    5 1   
     5    1    6 1   
     6    2    7 1   
     7    2    8 1   
@<TRIPOS>SUBSTRUCTURE
     1 MOL         1 TEMP              0 ****  ****    0 ROOT
