@<TRIPOS>MOLECULE
formaldehyde
    4     3     1     0     0
SMALL
No Charge or Current Charge


@<TRIPOS>ATOM
      1 C1          0.0051    0.0087   -0.0035 c         1 MOL      0.563300
      2 O1         -0.5671   -0.9721    0.3945 o         1 MOL     -0.514800
      3 H1          0.0711    0.9291    0.6051 h4        1 MOL     -0.024300
      4 H2          0.4910    0.0344   -0.9961 h4        1 MOL     -0.024300
@<TRIPOS>BOND
     1    1    2 2   
     2    1    3 1   
     3    1    4 1   
@<TRIPOS>SUBSTRUCTURE
     1 MOL         1 TEMP              0 ****  ****    0 ROOT
