@<TRIPOS>MOLECULE
N-methylmethanamine
   10     9     1     0     0
SMALL
No Charge or Current Charge


@<TRIPOS>ATOM
      1 C1          1.0244    0.1144    0.3430 c3        1 MOL      0.147500
      2 N1          1.0374    0.3070    1.7837 n3        1 MOL     -0.822500
      3 C2          2.3865    0.4405    2.3081 c3        1 MOL      0.147500
      4 H1         -0.0025   -0.0352   -0.0012 h1        1 MOL      0.028400
      5 H2          1.6384   -0.7392    0.0044 h1        1 MOL      0.028400
      6 H3          1.4122    1.0176   -0.1406 h1        1 MOL      0.028400
      7 H4          0.5668   -0.4701    2.2388 hn        1 MOL      0.357100
      8 H5          2.3533    0.5287    3.3974 h1        1 MOL      0.028400
      9 H6          2.8342    1.3580    1.9107 h1        1 MOL      0.028400
     10 H7          3.0508   -0.4011    2.0420 h1        1 MOL      0.028400
@<TRIPOS>BOND
     1    1    2 1   
     2    2    3 1   
     3    1    4 1   
     4    1    5 1   
     5    1    6 1   
     6    2    7 1   
     7    3    8 1   
     8    3    9 1   
     9    3   10 1   
@<TRIPOS>SUBSTRUCTURE
     1 MOL         1 TEMP              0 ****  ****    0 ROOT
