@<TRIPOS>MOLECULE
acetonitrile
    6     5     1     0     0
SMALL
No Charge or Current Charge


@<TRIPOS>ATOM
      1 C1          0.4511    0.2774    0.9541 c3        1 MOL     -0.044500
      2 C2         -0.2032    1.4660    1.5019 c1        1 MOL      0.208100
      3 N1         -0.7199    2.4042    1.9348 n1        1 MOL     -0.375900
      4 H1         -0.2903   -0.5019    0.7650 hc        1 MOL      0.070800
      5 H2          1.1913   -0.0998    1.6630 hc        1 MOL      0.070800
      6 H3          0.9521    0.5273    0.0164 hc        1 MOL      0.070800
@<TRIPOS>BOND
     1    1    2 1   
     2    2    3 3   
     3    1    4 1   
     4    1    5 1   
     5    1    6 1   
@<TRIPOS>SUBSTRUCTURE
     1 MOL         1 TEMP              0 ****  ****    0 ROOT
