@<TRIPOS>MOLECULE
ethylene
    6     5     1     0     0
SMALL
No Charge or Current Charge


@<TRIPOS>ATOM
      1 C1          0.2828    1.0312   -0.1846 c2        1 MOL     -0.218000
      2 C2         -0.6385    1.9544   -0.4468 c2        1 MOL     -0.217900
      3 H1          1.3407    1.2760   -0.1470 ha        1 MOL      0.109000
      4 H2          0.0145   -0.0050    0.0023 ha        1 MOL      0.109000
      5 H3         -1.6963    1.7096   -0.4847 ha        1 MOL      0.109000
      6 H4         -0.3702    2.9905   -0.6339 ha        1 MOL      0.109000
@<TRIPOS>BOND
     1    1    2 2   
     2    1    3 1   
     3    1    4 1   
     4    2    5 1   
     5    2    6 1   
@<TRIPOS>SUBSTRUCTURE
     1 MOL         1 TEMP              0 ****  ****    0 ROOT
