@<TRIPOS>MOLECULE
chloroethylene
    6     5     1     0     0
SMALL
No Charge or Current Charge


@<TRIPOS>ATOM
      1 C1          0.6630    0.2444   -0.2343 c2        1 MOL     -0.217400
      2 C2         -0.4768   -0.3325    0.1203 c2        1 MOL     -0.064000
      3 Cl1        -0.8452   -1.9965   -0.2196 cl        1 MOL     -0.124200
      4 H1          0.8296    1.2886    0.0091 ha        1 MOL      0.128800
      5 H2          1.4423   -0.2942   -0.7636 ha        1 MOL      0.128800
      6 H3         -1.2738    0.1779    0.6492 h4        1 MOL      0.148000
@<TRIPOS>BOND
     1    1    2 2   
     2    2    3 1   
     3    1    4 1   
     4    1    5 1   
     5    2    6 1   
@<TRIPOS>SUBSTRUCTURE
     1 MOL         1 TEMP              0 ****  ****    0 ROOT
