@<TRIPOS>MOLECULE
methanamine
    7     6     1     0     0
SMALL
No Charge or Current Charge


@<TRIPOS>ATOM
      1 C1         -0.6372   -0.7337    0.4896 c3        1 MOL      0.153100
      2 N1         -1.8824   -0.7281   -0.2749 n3        1 MOL     -0.928800
      3 H1         -0.3328   -1.7169    0.8787 h1        1 MOL      0.025200
      4 H2         -0.7368   -0.0487    1.3362 h1        1 MOL      0.025200
      5 H3          0.1698   -0.3533   -0.1427 h1        1 MOL      0.025200
      6 H4         -2.6550   -1.0638    0.2934 hn        1 MOL      0.350100
      7 H5         -1.8140   -1.3463   -1.0784 hn        1 MOL      0.350100
@<TRIPOS>BOND
     1    1    2 1   
     2    1    3 1   
     3    1    4 1   
     4    1    5 1   
     5    2    6 1   
     6    2    7 1   
@<TRIPOS>SUBSTRUCTURE
     1 MOL         1 TEMP              0 ****  ****    0 ROOT
